$ HMWF_OFFLINE_AUTO_SEAM_MODEL
BEGIN BULK
GRID,6000,,0,-100,0
GRID,6001,,20,-100,0
GRID,6002,,40,-100,0
GRID,6003,,60,-100,0
GRID,6004,,80,-100,0
GRID,6005,,100,-100,0
GRID,6006,,120,-100,0
GRID,6007,,140,-100,0
GRID,6008,,160,-100,0
GRID,6009,,180,-100,0
GRID,6010,,200,-100,0
GRID,6011,,0,-80,0
GRID,6012,,20,-80,0
GRID,6013,,40,-80,0
GRID,6014,,60,-80,0
GRID,6015,,80,-80,0
GRID,6016,,100,-80,0
GRID,6017,,120,-80,0
GRID,6018,,140,-80,0
GRID,6019,,160,-80,0
$ ... 563 like lines cut
$ CASE TC006_TGT_B_A
$ ==================
$HMNAME COMP 26000 "TC006_TGT_B_A"
$HMCOMP ID 26000
CQUAD4,16000,36000,6000,6001,6012,6011
CQUAD4,16001,36000,6001,6002,6013,6012
CQUAD4,16002,36000,6002,6003,6014,6013
CQUAD4,16003,36000,6003,6004,6015,6014
CQUAD4,16004,36000,6004,6005,6016,6015
CQUAD4,16005,36000,6005,6006,6017,6016
CQUAD4,16006,36000,6006,6007,6018,6017
CQUAD4,16007,36000,6007,6008,6019,6018
CQUAD4,16008,36000,6008,6009,6020,6019
CQUAD4,16009,36000,6009,6010,6021,6020
CQUAD4,16010,36000,6011,6012,6023,6022
CQUAD4,16011,36000,6012,6013,6024,6023
CQUAD4,16012,36000,6013,6014,6025,6024
CQUAD4,16013,36000,6014,6015,6026,6025
CQUAD4,16014,36000,6015,6016,6027,6026
CQUAD4,16015,36000,6016,6017,6028,6027
CQUAD4,16016,36000,6017,6018,6029,6028
CQUAD4,16017,36000,6018,6019,6030,6029
CQUAD4,16018,36000,6019,6020,6031,6030
CQUAD4,16019,36000,6020,6021,6032,6031
$ ... 80 like lines cut
$ CASE TC006_TGT_B_B
$ ==================
$HMNAME COMP 26001 "TC006_TGT_B_B"
$HMCOMP ID 26001
CQUAD4,16100,36001,6121,6122,6133,6132
CQUAD4,16101,36001,6122,6123,6134,6133
CQUAD4,16102,36001,6123,6124,6135,6134
CQUAD4,16103,36001,6124,6125,6136,6135
CQUAD4,16104,36001,6125,6126,6137,6136
CQUAD4,16105,36001,6126,6127,6138,6137
CQUAD4,16106,36001,6127,6128,6139,6138
CQUAD4,16107,36001,6128,6129,6140,6139
CQUAD4,16108,36001,6129,6130,6141,6140
CQUAD4,16109,36001,6130,6131,6142,6141
CQUAD4,16110,36001,6132,6133,6144,6143
CQUAD4,16111,36001,6133,6134,6145,6144
CQUAD4,16112,36001,6134,6135,6146,6145
CQUAD4,16113,36001,6135,6136,6147,6146
CQUAD4,16114,36001,6136,6137,6148,6147
CQUAD4,16115,36001,6137,6138,6149,6148
CQUAD4,16116,36001,6138,6139,6150,6149
CQUAD4,16117,36001,6139,6140,6151,6150
CQUAD4,16118,36001,6140,6141,6152,6151
CQUAD4,16119,36001,6141,6142,6153,6152
$ ... 80 like lines cut
$ CASE TC006_SRC_WEB
$ ==================
$HMNAME COMP 26002 "TC006_SRC_WEB"
$HMCOMP ID 26002
CQUAD4,16200,36002,6242,6243,6274,6273
CQUAD4,16201,36002,6243,6244,6275,6274
CQUAD4,16202,36002,6244,6245,6276,6275
CQUAD4,16203,36002,6245,6246,6277,6276
CQUAD4,16204,36002,6246,6247,6278,6277
CQUAD4,16205,36002,6247,6248,6279,6278
CQUAD4,16206,36002,6248,6249,6280,6279
CQUAD4,16207,36002,6249,6250,6281,6280
CQUAD4,16208,36002,6250,6251,6282,6281
CQUAD4,16209,36002,6251,6252,6283,6282
CQUAD4,16210,36002,6252,6253,6284,6283
CQUAD4,16211,36002,6253,6254,6285,6284
CQUAD4,16212,36002,6254,6255,6286,6285
CQUAD4,16213,36002,6255,6256,6287,6286
CQUAD4,16214,36002,6256,6257,6288,6287
CQUAD4,16215,36002,6257,6258,6289,6288
CQUAD4,16216,36002,6258,6259,6290,6289
CQUAD4,16217,36002,6259,6260,6291,6290
CQUAD4,16218,36002,6260,6261,6292,6291
CQUAD4,16219,36002,6261,6262,6293,6292
$ ... 280 like lines cut
PSHELL,36000,1,10
PSHELL,36001,1,10
PSHELL,36002,1,6
MAT1,1,210000,,0.3
ENDDATA
