$ HMWF_OFFLINE_AUTO_SEAM_MODEL
BEGIN BULK
GRID,1,,-50,-20,0
GRID,2,,-40,-20,0
GRID,3,,-30,-20,0
GRID,4,,-20,-20,0
GRID,5,,-10,-20,0
GRID,6,,0,-20,0
GRID,7,,10,-20,0
GRID,8,,20,-20,0
GRID,9,,30,-20,0
GRID,10,,40,-20,0
GRID,11,,50,-20,0
GRID,12,,-50,-10,0
GRID,13,,-40,-10,0
GRID,14,,-30,-10,0
GRID,15,,-20,-10,0
GRID,16,,-10,-10,0
GRID,17,,0,-10,0
GRID,18,,10,-10,0
GRID,19,,20,-10,0
GRID,20,,30,-10,0
$ ... 95 like lines cut
$HMNAME COMP 1 "BASE_T2"
$HMCOMP ID 1
CQUAD4,1,1,1,2,13,12
CQUAD4,2,1,2,3,14,13
CQUAD4,3,1,3,4,15,14
CQUAD4,4,1,4,5,16,15
CQUAD4,5,1,5,6,17,16
CQUAD4,6,1,6,7,18,17
CQUAD4,7,1,7,8,19,18
CQUAD4,8,1,8,9,20,19
CQUAD4,9,1,9,10,21,20
CQUAD4,10,1,10,11,22,21
CQUAD4,11,1,12,13,24,23
CQUAD4,12,1,13,14,25,24
CQUAD4,13,1,14,15,26,25
CQUAD4,14,1,15,16,27,26
CQUAD4,15,1,16,17,28,27
CQUAD4,16,1,17,18,29,28
CQUAD4,17,1,18,19,30,29
CQUAD4,18,1,19,20,31,30
CQUAD4,19,1,20,21,32,31
CQUAD4,20,1,21,22,33,32
$ ... 50 like lines cut
$HMNAME COMP 2 "CURVED_WEB_T1"
$HMCOMP ID 2
CQUAD4,71,2,89,90,99,98
CQUAD4,72,2,90,91,100,99
CQUAD4,73,2,91,92,101,100
CQUAD4,74,2,92,93,102,101
CQUAD4,75,2,93,94,103,102
CQUAD4,76,2,94,95,104,103
CQUAD4,77,2,95,96,105,104
CQUAD4,78,2,96,97,106,105
CQUAD4,79,2,98,99,108,107
CQUAD4,80,2,99,100,109,108
CQUAD4,81,2,100,101,110,109
CQUAD4,82,2,101,102,111,110
CQUAD4,83,2,102,103,112,111
CQUAD4,84,2,103,104,113,112
CQUAD4,85,2,104,105,114,113
CQUAD4,86,2,105,106,115,114
PSHELL,1,1,2
PSHELL,2,1,1
MAT1,1,210000,,0.3
ENDDATA
