$ HMWF_OFFLINE_AUTO_SEAM_MODEL
BEGIN BULK
GRID,5000,,0,-100,0
GRID,5001,,20,-100,0
GRID,5002,,40,-100,0
GRID,5003,,60,-100,0
GRID,5004,,80,-100,0
GRID,5005,,100,-100,0
GRID,5006,,120,-100,0
GRID,5007,,140,-100,0
GRID,5008,,160,-100,0
GRID,5009,,180,-100,0
GRID,5010,,200,-100,0
GRID,5011,,220,-100,0
GRID,5012,,240,-100,0
GRID,5013,,260,-100,0
GRID,5014,,280,-100,0
GRID,5015,,300,-100,0
GRID,5016,,320,-100,0
GRID,5017,,340,-100,0
GRID,5018,,360,-100,0
GRID,5019,,380,-100,0
$ ... 552 like lines cut
$ CASE TC005_TGT_BASE
$ ===================
$HMNAME COMP 25000 "TC005_TGT_BASE"
$HMCOMP ID 25000
CQUAD4,15000,35000,5000,5021,5022,5001
CQUAD4,15001,35000,5001,5022,5023,5002
CQUAD4,15002,35000,5002,5023,5024,5003
CQUAD4,15003,35000,5003,5024,5025,5004
CQUAD4,15004,35000,5004,5025,5026,5005
CQUAD4,15005,35000,5005,5026,5027,5006
CQUAD4,15006,35000,5006,5027,5028,5007
CQUAD4,15007,35000,5007,5028,5029,5008
CQUAD4,15008,35000,5008,5029,5030,5009
CQUAD4,15009,35000,5009,5030,5031,5010
CQUAD4,15010,35000,5010,5031,5032,5011
CQUAD4,15011,35000,5011,5032,5033,5012
CQUAD4,15012,35000,5012,5033,5034,5013
CQUAD4,15013,35000,5013,5034,5035,5014
CQUAD4,15014,35000,5014,5035,5036,5015
CQUAD4,15015,35000,5015,5036,5037,5016
CQUAD4,15016,35000,5016,5037,5038,5017
CQUAD4,15017,35000,5017,5038,5039,5018
CQUAD4,15018,35000,5018,5039,5040,5019
CQUAD4,15019,35000,5019,5040,5041,5020
$ ... 180 like lines cut
$ CASE TC005_SRC_WEB
$ ==================
$HMNAME COMP 25001 "TC005_SRC_WEB"
$HMCOMP ID 25001
CQUAD4,15200,35001,5231,5232,5263,5262
CQUAD4,15201,35001,5232,5233,5264,5263
CQUAD4,15202,35001,5233,5234,5265,5264
CQUAD4,15203,35001,5234,5235,5266,5265
CQUAD4,15204,35001,5235,5236,5267,5266
CQUAD4,15205,35001,5236,5237,5268,5267
CQUAD4,15206,35001,5237,5238,5269,5268
CQUAD4,15207,35001,5238,5239,5270,5269
CQUAD4,15208,35001,5239,5240,5271,5270
CQUAD4,15209,35001,5240,5241,5272,5271
CQUAD4,15210,35001,5241,5242,5273,5272
CQUAD4,15211,35001,5242,5243,5274,5273
CQUAD4,15212,35001,5243,5244,5275,5274
CQUAD4,15213,35001,5244,5245,5276,5275
CQUAD4,15214,35001,5245,5246,5277,5276
CQUAD4,15215,35001,5246,5247,5278,5277
CQUAD4,15216,35001,5247,5248,5279,5278
CQUAD4,15217,35001,5248,5249,5280,5279
CQUAD4,15218,35001,5249,5250,5281,5280
CQUAD4,15219,35001,5250,5251,5282,5281
$ ... 280 like lines cut
PSHELL,35000,1,10
PSHELL,35001,1,6
MAT1,1,210000,,0.3
ENDDATA
