$ HMWF_OFFLINE_AUTO_SEAM_MODEL
BEGIN BULK
GRID,45000,,-40,-120,0
GRID,45001,,-20,-120,0
GRID,45002,,0,-120,0
GRID,45003,,20,-120,0
GRID,45004,,40,-120,0
GRID,45005,,60,-120,0
GRID,45006,,80,-120,0
GRID,45007,,100,-120,0
GRID,45008,,120,-120,0
GRID,45009,,140,-120,0
GRID,45010,,160,-120,0
GRID,45011,,180,-120,0
GRID,45012,,200,-120,0
GRID,45013,,220,-120,0
GRID,45014,,240,-120,0
GRID,45015,,260,-120,0
GRID,45016,,280,-120,0
GRID,45017,,300,-120,0
GRID,45018,,320,-120,0
GRID,45019,,340,-120,0
$ ... 746 like lines cut
$ CASE TC045_TGT_BASE
$ ===================
$HMNAME COMP 65000 "TC045_TGT_BASE"
$HMCOMP ID 65000
CQUAD4,55000,75000,45000,45001,45026,45025
CQUAD4,55001,75000,45001,45002,45027,45026
CQUAD4,55002,75000,45002,45003,45028,45027
CQUAD4,55003,75000,45003,45004,45029,45028
CQUAD4,55004,75000,45004,45005,45030,45029
CQUAD4,55005,75000,45005,45006,45031,45030
CQUAD4,55006,75000,45006,45007,45032,45031
CQUAD4,55007,75000,45007,45008,45033,45032
CQUAD4,55008,75000,45008,45009,45034,45033
CQUAD4,55009,75000,45009,45010,45035,45034
CQUAD4,55010,75000,45010,45011,45036,45035
CQUAD4,55011,75000,45011,45012,45037,45036
CQUAD4,55012,75000,45012,45013,45038,45037
CQUAD4,55013,75000,45013,45014,45039,45038
CQUAD4,55014,75000,45014,45015,45040,45039
CQUAD4,55015,75000,45015,45016,45041,45040
CQUAD4,55016,75000,45016,45017,45042,45041
CQUAD4,55017,75000,45017,45018,45043,45042
CQUAD4,55018,75000,45018,45019,45044,45043
CQUAD4,55019,75000,45019,45020,45045,45044
$ ... 268 like lines cut
$ CASE TC045_SRC_DIAG
$ ===================
$HMNAME COMP 65001 "TC045_SRC_DIAG"
$HMCOMP ID 65001
CQUAD4,55288,75001,45325,45326,45347,45346
CQUAD4,55289,75001,45326,45327,45348,45347
CQUAD4,55290,75001,45327,45328,45349,45348
CQUAD4,55291,75001,45328,45329,45350,45349
CQUAD4,55292,75001,45329,45330,45351,45350
CQUAD4,55293,75001,45330,45331,45352,45351
CQUAD4,55294,75001,45331,45332,45353,45352
CQUAD4,55295,75001,45332,45333,45354,45353
CQUAD4,55296,75001,45333,45334,45355,45354
CQUAD4,55297,75001,45334,45335,45356,45355
CQUAD4,55298,75001,45335,45336,45357,45356
CQUAD4,55299,75001,45336,45337,45358,45357
CQUAD4,55300,75001,45337,45338,45359,45358
CQUAD4,55301,75001,45338,45339,45360,45359
CQUAD4,55302,75001,45339,45340,45361,45360
CQUAD4,55303,75001,45340,45341,45362,45361
CQUAD4,55304,75001,45341,45342,45363,45362
CQUAD4,55305,75001,45342,45343,45364,45363
CQUAD4,55306,75001,45343,45344,45365,45364
CQUAD4,55307,75001,45344,45345,45366,45365
$ ... 380 like lines cut
PSHELL,75000,1,10
PSHELL,75001,1,6
MAT1,1,210000,,0.3
ENDDATA
