$ HMWF_OFFLINE_AUTO_SEAM_MODEL
BEGIN BULK
GRID,50000,,0,-120,0
GRID,50001,,20,-120,0
GRID,50002,,40,-120,0
GRID,50003,,60,-120,0
GRID,50004,,80,-120,0
GRID,50005,,100,-120,0
GRID,50006,,120,-120,0
GRID,50007,,140,-120,0
GRID,50008,,160,-120,0
GRID,50009,,180,-120,0
GRID,50010,,200,-120,0
GRID,50011,,220,-120,0
GRID,50012,,240,-120,0
GRID,50013,,260,-120,0
GRID,50014,,280,-120,0
GRID,50015,,300,-120,0
GRID,50016,,320,-120,0
GRID,50017,,340,-120,0
GRID,50018,,360,-120,0
GRID,50019,,380,-120,0
$ ... 693 like lines cut
$ CASE TC050_TGT_BASE
$ ===================
$HMNAME COMP 70000 "TC050_TGT_BASE"
$HMCOMP ID 70000
CQUAD4,60000,80000,50000,50001,50022,50021
CQUAD4,60001,80000,50001,50002,50023,50022
CQUAD4,60002,80000,50002,50003,50024,50023
CQUAD4,60003,80000,50003,50004,50025,50024
CQUAD4,60004,80000,50004,50005,50026,50025
CQUAD4,60005,80000,50005,50006,50027,50026
CQUAD4,60006,80000,50006,50007,50028,50027
CQUAD4,60007,80000,50007,50008,50029,50028
CQUAD4,60008,80000,50008,50009,50030,50029
CQUAD4,60009,80000,50009,50010,50031,50030
CQUAD4,60010,80000,50010,50011,50032,50031
CQUAD4,60011,80000,50011,50012,50033,50032
CQUAD4,60012,80000,50012,50013,50034,50033
CQUAD4,60013,80000,50013,50014,50035,50034
CQUAD4,60014,80000,50014,50015,50036,50035
CQUAD4,60015,80000,50015,50016,50037,50036
CQUAD4,60016,80000,50016,50017,50038,50037
CQUAD4,60017,80000,50017,50018,50039,50038
CQUAD4,60018,80000,50018,50019,50040,50039
CQUAD4,60019,80000,50019,50020,50041,50040
$ ... 220 like lines cut
$ CASE TC050_SRC_LONG
$ ===================
$HMNAME COMP 70001 "TC050_SRC_LONG"
$HMCOMP ID 70001
CQUAD4,60240,80001,50273,50274,50303,50302
CQUAD4,60241,80001,50274,50275,50304,50303
CQUAD4,60242,80001,50275,50276,50305,50304
CQUAD4,60243,80001,50276,50277,50306,50305
CQUAD4,60244,80001,50277,50278,50307,50306
CQUAD4,60245,80001,50278,50279,50308,50307
CQUAD4,60246,80001,50279,50280,50309,50308
CQUAD4,60247,80001,50280,50281,50310,50309
CQUAD4,60248,80001,50281,50282,50311,50310
CQUAD4,60249,80001,50282,50283,50312,50311
CQUAD4,60250,80001,50283,50284,50313,50312
CQUAD4,60251,80001,50284,50285,50314,50313
CQUAD4,60252,80001,50285,50286,50315,50314
CQUAD4,60253,80001,50286,50287,50316,50315
CQUAD4,60254,80001,50287,50288,50317,50316
CQUAD4,60255,80001,50288,50289,50318,50317
CQUAD4,60256,80001,50289,50290,50319,50318
CQUAD4,60257,80001,50290,50291,50320,50319
CQUAD4,60258,80001,50291,50292,50321,50320
CQUAD4,60259,80001,50292,50293,50322,50321
$ ... 260 like lines cut
$ CASE TC050_SRC_CROSS
$ ====================
$HMNAME COMP 70002 "TC050_SRC_CROSS"
$HMCOMP ID 70002
CQUAD4,60520,80002,50592,50593,50604,50603
CQUAD4,60521,80002,50593,50594,50605,50604
CQUAD4,60522,80002,50594,50595,50606,50605
CQUAD4,60523,80002,50595,50596,50607,50606
CQUAD4,60524,80002,50596,50597,50608,50607
CQUAD4,60525,80002,50597,50598,50609,50608
CQUAD4,60526,80002,50598,50599,50610,50609
CQUAD4,60527,80002,50599,50600,50611,50610
CQUAD4,60528,80002,50600,50601,50612,50611
CQUAD4,60529,80002,50601,50602,50613,50612
CQUAD4,60530,80002,50603,50604,50615,50614
CQUAD4,60531,80002,50604,50605,50616,50615
CQUAD4,60532,80002,50605,50606,50617,50616
CQUAD4,60533,80002,50606,50607,50618,50617
CQUAD4,60534,80002,50607,50608,50619,50618
CQUAD4,60535,80002,50608,50609,50620,50619
CQUAD4,60536,80002,50609,50610,50621,50620
CQUAD4,60537,80002,50610,50611,50622,50621
CQUAD4,60538,80002,50611,50612,50623,50622
CQUAD4,60539,80002,50612,50613,50624,50623
$ ... 80 like lines cut
PSHELL,80000,1,10
PSHELL,80001,1,6
PSHELL,80002,1,6
MAT1,1,210000,,0.3
ENDDATA
