$ HMWF_OFFLINE_AUTO_SEAM_MODEL
BEGIN BULK
GRID,1,,23,-17,0
GRID,2,,31.5,-17,0
GRID,3,,40,-17,0
GRID,4,,48.5,-17,0
GRID,5,,57,-17,0
GRID,6,,23,-7,0
GRID,7,,31.5,-7,0
GRID,8,,40,-7,0
GRID,9,,48.5,-7,0
GRID,10,,57,-7,0
GRID,11,,23,3,0
GRID,12,,31.5,3,0
GRID,13,,40,3,0
GRID,14,,48.5,3,0
GRID,15,,57,3,0
GRID,16,,23,13,0
GRID,17,,31.5,13,0
GRID,18,,40,13,0
GRID,19,,48.5,13,0
GRID,20,,57,13,0
$ ... 32 like lines cut
$HMNAME COMP 1 "PARTIAL_BASE_T2"
$HMCOMP ID 1
CQUAD4,1,1,1,2,7,6
CQUAD4,2,1,2,3,8,7
CQUAD4,3,1,3,4,9,8
CQUAD4,4,1,4,5,10,9
CQUAD4,5,1,6,7,12,11
CQUAD4,6,1,7,8,13,12
CQUAD4,7,1,8,9,14,13
CQUAD4,8,1,9,10,15,14
CQUAD4,9,1,11,12,17,16
CQUAD4,10,1,12,13,18,17
CQUAD4,11,1,13,14,19,18
CQUAD4,12,1,14,15,20,19
CQUAD4,13,1,16,17,22,21
CQUAD4,14,1,17,18,23,22
CQUAD4,15,1,18,19,24,23
CQUAD4,16,1,19,20,25,24
$HMNAME COMP 2 "LONG_WEB_T1"
$HMCOMP ID 2
CQUAD4,17,2,26,27,36,35
CQUAD4,18,2,27,28,37,36
CQUAD4,19,2,28,29,38,37
CQUAD4,20,2,29,30,39,38
CQUAD4,21,2,30,31,40,39
CQUAD4,22,2,31,32,41,40
CQUAD4,23,2,32,33,42,41
CQUAD4,24,2,33,34,43,42
CQUAD4,25,2,35,36,45,44
CQUAD4,26,2,36,37,46,45
CQUAD4,27,2,37,38,47,46
CQUAD4,28,2,38,39,48,47
CQUAD4,29,2,39,40,49,48
CQUAD4,30,2,40,41,50,49
CQUAD4,31,2,41,42,51,50
CQUAD4,32,2,42,43,52,51
PSHELL,1,1,2
PSHELL,2,1,1
MAT1,1,210000,,0.3
ENDDATA
