$ HMWF_OFFLINE_AUTO_SEAM_MODEL
BEGIN BULK
GRID,204000,,0,-800,0
GRID,204001,,20,-800,0
GRID,204002,,40,-800,0
GRID,204003,,60,-800,0
GRID,204004,,80,-800,0
GRID,204005,,100,-800,0
GRID,204006,,120,-800,0
GRID,204007,,140,-800,0
GRID,204008,,160,-800,0
GRID,204009,,180,-800,0
GRID,204010,,200,-800,0
GRID,204011,,220,-800,0
GRID,204012,,240,-800,0
GRID,204013,,260,-800,0
GRID,204014,,280,-800,0
GRID,204015,,300,-800,0
GRID,204016,,320,-800,0
GRID,204017,,340,-800,0
GRID,204018,,360,-800,0
GRID,204019,,380,-800,0
$ ... 10621 like lines cut
$ CASE CM004_BASE
$ ===============
$HMNAME COMP 2204000 "CM004_BASE"
$HMCOMP ID 2204000
CQUAD4,1204000,3204000,204000,204001,204112,204111
CQUAD4,1204001,3204000,204001,204002,204113,204112
CQUAD4,1204002,3204000,204002,204003,204114,204113
CQUAD4,1204003,3204000,204003,204004,204115,204114
CQUAD4,1204004,3204000,204004,204005,204116,204115
CQUAD4,1204005,3204000,204005,204006,204117,204116
CQUAD4,1204006,3204000,204006,204007,204118,204117
CQUAD4,1204007,3204000,204007,204008,204119,204118
CQUAD4,1204008,3204000,204008,204009,204120,204119
CQUAD4,1204009,3204000,204009,204010,204121,204120
CQUAD4,1204010,3204000,204010,204011,204122,204121
CQUAD4,1204011,3204000,204011,204012,204123,204122
CQUAD4,1204012,3204000,204012,204013,204124,204123
CQUAD4,1204013,3204000,204013,204014,204125,204124
CQUAD4,1204014,3204000,204014,204015,204126,204125
CQUAD4,1204015,3204000,204015,204016,204127,204126
CQUAD4,1204016,3204000,204016,204017,204128,204127
CQUAD4,1204017,3204000,204017,204018,204129,204128
CQUAD4,1204018,3204000,204018,204019,204130,204129
CQUAD4,1204019,3204000,204019,204020,204131,204130
$ ... 8780 like lines cut
$ CASE CM004_WEB_00
$ =================
$HMNAME COMP 2204001 "CM004_WEB_00"
$HMCOMP ID 2204001
CQUAD4,1212800,3204001,212991,212992,212997,212996
CQUAD4,1212801,3204001,212992,212993,212998,212997
CQUAD4,1212802,3204001,212993,212994,212999,212998
CQUAD4,1212803,3204001,212994,212995,213000,212999
CQUAD4,1212804,3204001,212996,212997,213002,213001
CQUAD4,1212805,3204001,212997,212998,213003,213002
CQUAD4,1212806,3204001,212998,212999,213004,213003
CQUAD4,1212807,3204001,212999,213000,213005,213004
CQUAD4,1212808,3204001,213001,213002,213007,213006
CQUAD4,1212809,3204001,213002,213003,213008,213007
CQUAD4,1212810,3204001,213003,213004,213009,213008
CQUAD4,1212811,3204001,213004,213005,213010,213009
CQUAD4,1212812,3204001,213006,213007,213012,213011
CQUAD4,1212813,3204001,213007,213008,213013,213012
CQUAD4,1212814,3204001,213008,213009,213014,213013
CQUAD4,1212815,3204001,213009,213010,213015,213014
CQUAD4,1212816,3204001,213011,213012,213017,213016
CQUAD4,1212817,3204001,213012,213013,213018,213017
CQUAD4,1212818,3204001,213013,213014,213019,213018
CQUAD4,1212819,3204001,213014,213015,213020,213019
$ ... 20 like lines cut
$ CASE CM004_WEB_01
$ =================
$HMNAME COMP 2204002 "CM004_WEB_01"
$HMCOMP ID 2204002
CQUAD4,1212840,3204002,213046,213047,213052,213051
CQUAD4,1212841,3204002,213047,213048,213053,213052
CQUAD4,1212842,3204002,213048,213049,213054,213053
CQUAD4,1212843,3204002,213049,213050,213055,213054
CQUAD4,1212844,3204002,213051,213052,213057,213056
CQUAD4,1212845,3204002,213052,213053,213058,213057
CQUAD4,1212846,3204002,213053,213054,213059,213058
CQUAD4,1212847,3204002,213054,213055,213060,213059
CQUAD4,1212848,3204002,213056,213057,213062,213061
CQUAD4,1212849,3204002,213057,213058,213063,213062
CQUAD4,1212850,3204002,213058,213059,213064,213063
CQUAD4,1212851,3204002,213059,213060,213065,213064
CQUAD4,1212852,3204002,213061,213062,213067,213066
CQUAD4,1212853,3204002,213062,213063,213068,213067
CQUAD4,1212854,3204002,213063,213064,213069,213068
CQUAD4,1212855,3204002,213064,213065,213070,213069
CQUAD4,1212856,3204002,213066,213067,213072,213071
CQUAD4,1212857,3204002,213067,213068,213073,213072
CQUAD4,1212858,3204002,213068,213069,213074,213073
CQUAD4,1212859,3204002,213069,213070,213075,213074
$ ... 20 like lines cut
$ CASE CM004_WEB_02
$ =================
$HMNAME COMP 2204003 "CM004_WEB_02"
$HMCOMP ID 2204003
CQUAD4,1212880,3204003,213101,213102,213107,213106
CQUAD4,1212881,3204003,213102,213103,213108,213107
CQUAD4,1212882,3204003,213103,213104,213109,213108
CQUAD4,1212883,3204003,213104,213105,213110,213109
CQUAD4,1212884,3204003,213106,213107,213112,213111
CQUAD4,1212885,3204003,213107,213108,213113,213112
CQUAD4,1212886,3204003,213108,213109,213114,213113
CQUAD4,1212887,3204003,213109,213110,213115,213114
CQUAD4,1212888,3204003,213111,213112,213117,213116
CQUAD4,1212889,3204003,213112,213113,213118,213117
CQUAD4,1212890,3204003,213113,213114,213119,213118
CQUAD4,1212891,3204003,213114,213115,213120,213119
CQUAD4,1212892,3204003,213116,213117,213122,213121
CQUAD4,1212893,3204003,213117,213118,213123,213122
CQUAD4,1212894,3204003,213118,213119,213124,213123
CQUAD4,1212895,3204003,213119,213120,213125,213124
CQUAD4,1212896,3204003,213121,213122,213127,213126
CQUAD4,1212897,3204003,213122,213123,213128,213127
CQUAD4,1212898,3204003,213123,213124,213129,213128
CQUAD4,1212899,3204003,213124,213125,213130,213129
$ ... 20 like lines cut
$ CASE CM004_WEB_03
$ =================
$HMNAME COMP 2204004 "CM004_WEB_03"
$HMCOMP ID 2204004
CQUAD4,1212920,3204004,213156,213157,213162,213161
CQUAD4,1212921,3204004,213157,213158,213163,213162
CQUAD4,1212922,3204004,213158,213159,213164,213163
CQUAD4,1212923,3204004,213159,213160,213165,213164
CQUAD4,1212924,3204004,213161,213162,213167,213166
CQUAD4,1212925,3204004,213162,213163,213168,213167
CQUAD4,1212926,3204004,213163,213164,213169,213168
CQUAD4,1212927,3204004,213164,213165,213170,213169
CQUAD4,1212928,3204004,213166,213167,213172,213171
CQUAD4,1212929,3204004,213167,213168,213173,213172
CQUAD4,1212930,3204004,213168,213169,213174,213173
CQUAD4,1212931,3204004,213169,213170,213175,213174
CQUAD4,1212932,3204004,213171,213172,213177,213176
CQUAD4,1212933,3204004,213172,213173,213178,213177
CQUAD4,1212934,3204004,213173,213174,213179,213178
CQUAD4,1212935,3204004,213174,213175,213180,213179
CQUAD4,1212936,3204004,213176,213177,213182,213181
CQUAD4,1212937,3204004,213177,213178,213183,213182
CQUAD4,1212938,3204004,213178,213179,213184,213183
CQUAD4,1212939,3204004,213179,213180,213185,213184
$ ... 20 like lines cut
$ CASE CM004_WEB_04
$ =================
$HMNAME COMP 2204005 "CM004_WEB_04"
$HMCOMP ID 2204005
CQUAD4,1212960,3204005,213211,213212,213217,213216
CQUAD4,1212961,3204005,213212,213213,213218,213217
CQUAD4,1212962,3204005,213213,213214,213219,213218
CQUAD4,1212963,3204005,213214,213215,213220,213219
CQUAD4,1212964,3204005,213216,213217,213222,213221
CQUAD4,1212965,3204005,213217,213218,213223,213222
CQUAD4,1212966,3204005,213218,213219,213224,213223
CQUAD4,1212967,3204005,213219,213220,213225,213224
CQUAD4,1212968,3204005,213221,213222,213227,213226
CQUAD4,1212969,3204005,213222,213223,213228,213227
CQUAD4,1212970,3204005,213223,213224,213229,213228
CQUAD4,1212971,3204005,213224,213225,213230,213229
CQUAD4,1212972,3204005,213226,213227,213232,213231
CQUAD4,1212973,3204005,213227,213228,213233,213232
CQUAD4,1212974,3204005,213228,213229,213234,213233
CQUAD4,1212975,3204005,213229,213230,213235,213234
CQUAD4,1212976,3204005,213231,213232,213237,213236
CQUAD4,1212977,3204005,213232,213233,213238,213237
CQUAD4,1212978,3204005,213233,213234,213239,213238
CQUAD4,1212979,3204005,213234,213235,213240,213239
$ ... 20 like lines cut
$ CASE CM004_WEB_05
$ =================
$HMNAME COMP 2204006 "CM004_WEB_05"
$HMCOMP ID 2204006
CQUAD4,1213000,3204006,213266,213267,213272,213271
CQUAD4,1213001,3204006,213267,213268,213273,213272
CQUAD4,1213002,3204006,213268,213269,213274,213273
CQUAD4,1213003,3204006,213269,213270,213275,213274
CQUAD4,1213004,3204006,213271,213272,213277,213276
CQUAD4,1213005,3204006,213272,213273,213278,213277
CQUAD4,1213006,3204006,213273,213274,213279,213278
CQUAD4,1213007,3204006,213274,213275,213280,213279
CQUAD4,1213008,3204006,213276,213277,213282,213281
CQUAD4,1213009,3204006,213277,213278,213283,213282
CQUAD4,1213010,3204006,213278,213279,213284,213283
CQUAD4,1213011,3204006,213279,213280,213285,213284
CQUAD4,1213012,3204006,213281,213282,213287,213286
CQUAD4,1213013,3204006,213282,213283,213288,213287
CQUAD4,1213014,3204006,213283,213284,213289,213288
CQUAD4,1213015,3204006,213284,213285,213290,213289
CQUAD4,1213016,3204006,213286,213287,213292,213291
CQUAD4,1213017,3204006,213287,213288,213293,213292
CQUAD4,1213018,3204006,213288,213289,213294,213293
CQUAD4,1213019,3204006,213289,213290,213295,213294
$ ... 20 like lines cut
$ CASE CM004_WEB_06
$ =================
$HMNAME COMP 2204007 "CM004_WEB_06"
$HMCOMP ID 2204007
CQUAD4,1213040,3204007,213321,213322,213327,213326
CQUAD4,1213041,3204007,213322,213323,213328,213327
CQUAD4,1213042,3204007,213323,213324,213329,213328
CQUAD4,1213043,3204007,213324,213325,213330,213329
CQUAD4,1213044,3204007,213326,213327,213332,213331
CQUAD4,1213045,3204007,213327,213328,213333,213332
CQUAD4,1213046,3204007,213328,213329,213334,213333
CQUAD4,1213047,3204007,213329,213330,213335,213334
CQUAD4,1213048,3204007,213331,213332,213337,213336
CQUAD4,1213049,3204007,213332,213333,213338,213337
CQUAD4,1213050,3204007,213333,213334,213339,213338
CQUAD4,1213051,3204007,213334,213335,213340,213339
CQUAD4,1213052,3204007,213336,213337,213342,213341
CQUAD4,1213053,3204007,213337,213338,213343,213342
CQUAD4,1213054,3204007,213338,213339,213344,213343
CQUAD4,1213055,3204007,213339,213340,213345,213344
CQUAD4,1213056,3204007,213341,213342,213347,213346
CQUAD4,1213057,3204007,213342,213343,213348,213347
CQUAD4,1213058,3204007,213343,213344,213349,213348
CQUAD4,1213059,3204007,213344,213345,213350,213349
$ ... 20 like lines cut
$ CASE CM004_WEB_07
$ =================
$HMNAME COMP 2204008 "CM004_WEB_07"
$HMCOMP ID 2204008
CQUAD4,1213080,3204008,213376,213377,213382,213381
CQUAD4,1213081,3204008,213377,213378,213383,213382
CQUAD4,1213082,3204008,213378,213379,213384,213383
CQUAD4,1213083,3204008,213379,213380,213385,213384
CQUAD4,1213084,3204008,213381,213382,213387,213386
CQUAD4,1213085,3204008,213382,213383,213388,213387
CQUAD4,1213086,3204008,213383,213384,213389,213388
CQUAD4,1213087,3204008,213384,213385,213390,213389
CQUAD4,1213088,3204008,213386,213387,213392,213391
CQUAD4,1213089,3204008,213387,213388,213393,213392
CQUAD4,1213090,3204008,213388,213389,213394,213393
CQUAD4,1213091,3204008,213389,213390,213395,213394
CQUAD4,1213092,3204008,213391,213392,213397,213396
CQUAD4,1213093,3204008,213392,213393,213398,213397
CQUAD4,1213094,3204008,213393,213394,213399,213398
CQUAD4,1213095,3204008,213394,213395,213400,213399
CQUAD4,1213096,3204008,213396,213397,213402,213401
CQUAD4,1213097,3204008,213397,213398,213403,213402
CQUAD4,1213098,3204008,213398,213399,213404,213403
CQUAD4,1213099,3204008,213399,213400,213405,213404
$ ... 20 like lines cut
$ CASE CM004_WEB_08
$ =================
$HMNAME COMP 2204009 "CM004_WEB_08"
$HMCOMP ID 2204009
CQUAD4,1213120,3204009,213431,213432,213437,213436
CQUAD4,1213121,3204009,213432,213433,213438,213437
CQUAD4,1213122,3204009,213433,213434,213439,213438
CQUAD4,1213123,3204009,213434,213435,213440,213439
CQUAD4,1213124,3204009,213436,213437,213442,213441
CQUAD4,1213125,3204009,213437,213438,213443,213442
CQUAD4,1213126,3204009,213438,213439,213444,213443
CQUAD4,1213127,3204009,213439,213440,213445,213444
CQUAD4,1213128,3204009,213441,213442,213447,213446
CQUAD4,1213129,3204009,213442,213443,213448,213447
CQUAD4,1213130,3204009,213443,213444,213449,213448
CQUAD4,1213131,3204009,213444,213445,213450,213449
CQUAD4,1213132,3204009,213446,213447,213452,213451
CQUAD4,1213133,3204009,213447,213448,213453,213452
CQUAD4,1213134,3204009,213448,213449,213454,213453
CQUAD4,1213135,3204009,213449,213450,213455,213454
CQUAD4,1213136,3204009,213451,213452,213457,213456
CQUAD4,1213137,3204009,213452,213453,213458,213457
CQUAD4,1213138,3204009,213453,213454,213459,213458
CQUAD4,1213139,3204009,213454,213455,213460,213459
$ ... 20 like lines cut
$ CASE CM004_WEB_09
$ =================
$HMNAME COMP 2204010 "CM004_WEB_09"
$HMCOMP ID 2204010
CQUAD4,1213160,3204010,213486,213487,213492,213491
CQUAD4,1213161,3204010,213487,213488,213493,213492
CQUAD4,1213162,3204010,213488,213489,213494,213493
CQUAD4,1213163,3204010,213489,213490,213495,213494
CQUAD4,1213164,3204010,213491,213492,213497,213496
CQUAD4,1213165,3204010,213492,213493,213498,213497
CQUAD4,1213166,3204010,213493,213494,213499,213498
CQUAD4,1213167,3204010,213494,213495,213500,213499
CQUAD4,1213168,3204010,213496,213497,213502,213501
CQUAD4,1213169,3204010,213497,213498,213503,213502
CQUAD4,1213170,3204010,213498,213499,213504,213503
CQUAD4,1213171,3204010,213499,213500,213505,213504
CQUAD4,1213172,3204010,213501,213502,213507,213506
CQUAD4,1213173,3204010,213502,213503,213508,213507
CQUAD4,1213174,3204010,213503,213504,213509,213508
CQUAD4,1213175,3204010,213504,213505,213510,213509
CQUAD4,1213176,3204010,213506,213507,213512,213511
CQUAD4,1213177,3204010,213507,213508,213513,213512
CQUAD4,1213178,3204010,213508,213509,213514,213513
CQUAD4,1213179,3204010,213509,213510,213515,213514
$ ... 20 like lines cut
$ CASE CM004_WEB_10
$ =================
$HMNAME COMP 2204011 "CM004_WEB_10"
$HMCOMP ID 2204011
CQUAD4,1213200,3204011,213541,213542,213547,213546
CQUAD4,1213201,3204011,213542,213543,213548,213547
CQUAD4,1213202,3204011,213543,213544,213549,213548
CQUAD4,1213203,3204011,213544,213545,213550,213549
CQUAD4,1213204,3204011,213546,213547,213552,213551
CQUAD4,1213205,3204011,213547,213548,213553,213552
CQUAD4,1213206,3204011,213548,213549,213554,213553
CQUAD4,1213207,3204011,213549,213550,213555,213554
CQUAD4,1213208,3204011,213551,213552,213557,213556
CQUAD4,1213209,3204011,213552,213553,213558,213557
CQUAD4,1213210,3204011,213553,213554,213559,213558
CQUAD4,1213211,3204011,213554,213555,213560,213559
CQUAD4,1213212,3204011,213556,213557,213562,213561
CQUAD4,1213213,3204011,213557,213558,213563,213562
CQUAD4,1213214,3204011,213558,213559,213564,213563
CQUAD4,1213215,3204011,213559,213560,213565,213564
CQUAD4,1213216,3204011,213561,213562,213567,213566
CQUAD4,1213217,3204011,213562,213563,213568,213567
CQUAD4,1213218,3204011,213563,213564,213569,213568
CQUAD4,1213219,3204011,213564,213565,213570,213569
$ ... 20 like lines cut
$ CASE CM004_WEB_11
$ =================
$HMNAME COMP 2204012 "CM004_WEB_11"
$HMCOMP ID 2204012
CQUAD4,1213240,3204012,213596,213597,213602,213601
CQUAD4,1213241,3204012,213597,213598,213603,213602
CQUAD4,1213242,3204012,213598,213599,213604,213603
CQUAD4,1213243,3204012,213599,213600,213605,213604
CQUAD4,1213244,3204012,213601,213602,213607,213606
CQUAD4,1213245,3204012,213602,213603,213608,213607
CQUAD4,1213246,3204012,213603,213604,213609,213608
CQUAD4,1213247,3204012,213604,213605,213610,213609
CQUAD4,1213248,3204012,213606,213607,213612,213611
CQUAD4,1213249,3204012,213607,213608,213613,213612
CQUAD4,1213250,3204012,213608,213609,213614,213613
CQUAD4,1213251,3204012,213609,213610,213615,213614
CQUAD4,1213252,3204012,213611,213612,213617,213616
CQUAD4,1213253,3204012,213612,213613,213618,213617
CQUAD4,1213254,3204012,213613,213614,213619,213618
CQUAD4,1213255,3204012,213614,213615,213620,213619
CQUAD4,1213256,3204012,213616,213617,213622,213621
CQUAD4,1213257,3204012,213617,213618,213623,213622
CQUAD4,1213258,3204012,213618,213619,213624,213623
CQUAD4,1213259,3204012,213619,213620,213625,213624
$ ... 20 like lines cut
$ CASE CM004_WEB_12
$ =================
$HMNAME COMP 2204013 "CM004_WEB_12"
$HMCOMP ID 2204013
CQUAD4,1213280,3204013,213651,213652,213657,213656
CQUAD4,1213281,3204013,213652,213653,213658,213657
CQUAD4,1213282,3204013,213653,213654,213659,213658
CQUAD4,1213283,3204013,213654,213655,213660,213659
CQUAD4,1213284,3204013,213656,213657,213662,213661
CQUAD4,1213285,3204013,213657,213658,213663,213662
CQUAD4,1213286,3204013,213658,213659,213664,213663
CQUAD4,1213287,3204013,213659,213660,213665,213664
CQUAD4,1213288,3204013,213661,213662,213667,213666
CQUAD4,1213289,3204013,213662,213663,213668,213667
CQUAD4,1213290,3204013,213663,213664,213669,213668
CQUAD4,1213291,3204013,213664,213665,213670,213669
CQUAD4,1213292,3204013,213666,213667,213672,213671
CQUAD4,1213293,3204013,213667,213668,213673,213672
CQUAD4,1213294,3204013,213668,213669,213674,213673
CQUAD4,1213295,3204013,213669,213670,213675,213674
CQUAD4,1213296,3204013,213671,213672,213677,213676
CQUAD4,1213297,3204013,213672,213673,213678,213677
CQUAD4,1213298,3204013,213673,213674,213679,213678
CQUAD4,1213299,3204013,213674,213675,213680,213679
$ ... 20 like lines cut
$ CASE CM004_WEB_13
$ =================
$HMNAME COMP 2204014 "CM004_WEB_13"
$HMCOMP ID 2204014
CQUAD4,1213320,3204014,213706,213707,213712,213711
CQUAD4,1213321,3204014,213707,213708,213713,213712
CQUAD4,1213322,3204014,213708,213709,213714,213713
CQUAD4,1213323,3204014,213709,213710,213715,213714
CQUAD4,1213324,3204014,213711,213712,213717,213716
CQUAD4,1213325,3204014,213712,213713,213718,213717
CQUAD4,1213326,3204014,213713,213714,213719,213718
CQUAD4,1213327,3204014,213714,213715,213720,213719
CQUAD4,1213328,3204014,213716,213717,213722,213721
CQUAD4,1213329,3204014,213717,213718,213723,213722
CQUAD4,1213330,3204014,213718,213719,213724,213723
CQUAD4,1213331,3204014,213719,213720,213725,213724
CQUAD4,1213332,3204014,213721,213722,213727,213726
CQUAD4,1213333,3204014,213722,213723,213728,213727
CQUAD4,1213334,3204014,213723,213724,213729,213728
CQUAD4,1213335,3204014,213724,213725,213730,213729
CQUAD4,1213336,3204014,213726,213727,213732,213731
CQUAD4,1213337,3204014,213727,213728,213733,213732
CQUAD4,1213338,3204014,213728,213729,213734,213733
CQUAD4,1213339,3204014,213729,213730,213735,213734
$ ... 20 like lines cut
$ CASE CM004_WEB_14
$ =================
$HMNAME COMP 2204015 "CM004_WEB_14"
$HMCOMP ID 2204015
CQUAD4,1213360,3204015,213761,213762,213767,213766
CQUAD4,1213361,3204015,213762,213763,213768,213767
CQUAD4,1213362,3204015,213763,213764,213769,213768
CQUAD4,1213363,3204015,213764,213765,213770,213769
CQUAD4,1213364,3204015,213766,213767,213772,213771
CQUAD4,1213365,3204015,213767,213768,213773,213772
CQUAD4,1213366,3204015,213768,213769,213774,213773
CQUAD4,1213367,3204015,213769,213770,213775,213774
CQUAD4,1213368,3204015,213771,213772,213777,213776
CQUAD4,1213369,3204015,213772,213773,213778,213777
CQUAD4,1213370,3204015,213773,213774,213779,213778
CQUAD4,1213371,3204015,213774,213775,213780,213779
CQUAD4,1213372,3204015,213776,213777,213782,213781
CQUAD4,1213373,3204015,213777,213778,213783,213782
CQUAD4,1213374,3204015,213778,213779,213784,213783
CQUAD4,1213375,3204015,213779,213780,213785,213784
CQUAD4,1213376,3204015,213781,213782,213787,213786
CQUAD4,1213377,3204015,213782,213783,213788,213787
CQUAD4,1213378,3204015,213783,213784,213789,213788
CQUAD4,1213379,3204015,213784,213785,213790,213789
$ ... 20 like lines cut
$ CASE CM004_WEB_15
$ =================
$HMNAME COMP 2204016 "CM004_WEB_15"
$HMCOMP ID 2204016
CQUAD4,1213400,3204016,213816,213817,213822,213821
CQUAD4,1213401,3204016,213817,213818,213823,213822
CQUAD4,1213402,3204016,213818,213819,213824,213823
CQUAD4,1213403,3204016,213819,213820,213825,213824
CQUAD4,1213404,3204016,213821,213822,213827,213826
CQUAD4,1213405,3204016,213822,213823,213828,213827
CQUAD4,1213406,3204016,213823,213824,213829,213828
CQUAD4,1213407,3204016,213824,213825,213830,213829
CQUAD4,1213408,3204016,213826,213827,213832,213831
CQUAD4,1213409,3204016,213827,213828,213833,213832
CQUAD4,1213410,3204016,213828,213829,213834,213833
CQUAD4,1213411,3204016,213829,213830,213835,213834
CQUAD4,1213412,3204016,213831,213832,213837,213836
CQUAD4,1213413,3204016,213832,213833,213838,213837
CQUAD4,1213414,3204016,213833,213834,213839,213838
CQUAD4,1213415,3204016,213834,213835,213840,213839
CQUAD4,1213416,3204016,213836,213837,213842,213841
CQUAD4,1213417,3204016,213837,213838,213843,213842
CQUAD4,1213418,3204016,213838,213839,213844,213843
CQUAD4,1213419,3204016,213839,213840,213845,213844
$ ... 20 like lines cut
$ CASE CM004_WEB_16
$ =================
$HMNAME COMP 2204017 "CM004_WEB_16"
$HMCOMP ID 2204017
CQUAD4,1213440,3204017,213871,213872,213877,213876
CQUAD4,1213441,3204017,213872,213873,213878,213877
CQUAD4,1213442,3204017,213873,213874,213879,213878
CQUAD4,1213443,3204017,213874,213875,213880,213879
CQUAD4,1213444,3204017,213876,213877,213882,213881
CQUAD4,1213445,3204017,213877,213878,213883,213882
CQUAD4,1213446,3204017,213878,213879,213884,213883
CQUAD4,1213447,3204017,213879,213880,213885,213884
CQUAD4,1213448,3204017,213881,213882,213887,213886
CQUAD4,1213449,3204017,213882,213883,213888,213887
CQUAD4,1213450,3204017,213883,213884,213889,213888
CQUAD4,1213451,3204017,213884,213885,213890,213889
CQUAD4,1213452,3204017,213886,213887,213892,213891
CQUAD4,1213453,3204017,213887,213888,213893,213892
CQUAD4,1213454,3204017,213888,213889,213894,213893
CQUAD4,1213455,3204017,213889,213890,213895,213894
CQUAD4,1213456,3204017,213891,213892,213897,213896
CQUAD4,1213457,3204017,213892,213893,213898,213897
CQUAD4,1213458,3204017,213893,213894,213899,213898
CQUAD4,1213459,3204017,213894,213895,213900,213899
$ ... 20 like lines cut
$ CASE CM004_WEB_17
$ =================
$HMNAME COMP 2204018 "CM004_WEB_17"
$HMCOMP ID 2204018
CQUAD4,1213480,3204018,213926,213927,213932,213931
CQUAD4,1213481,3204018,213927,213928,213933,213932
CQUAD4,1213482,3204018,213928,213929,213934,213933
CQUAD4,1213483,3204018,213929,213930,213935,213934
CQUAD4,1213484,3204018,213931,213932,213937,213936
CQUAD4,1213485,3204018,213932,213933,213938,213937
CQUAD4,1213486,3204018,213933,213934,213939,213938
CQUAD4,1213487,3204018,213934,213935,213940,213939
CQUAD4,1213488,3204018,213936,213937,213942,213941
CQUAD4,1213489,3204018,213937,213938,213943,213942
CQUAD4,1213490,3204018,213938,213939,213944,213943
CQUAD4,1213491,3204018,213939,213940,213945,213944
CQUAD4,1213492,3204018,213941,213942,213947,213946
CQUAD4,1213493,3204018,213942,213943,213948,213947
CQUAD4,1213494,3204018,213943,213944,213949,213948
CQUAD4,1213495,3204018,213944,213945,213950,213949
CQUAD4,1213496,3204018,213946,213947,213952,213951
CQUAD4,1213497,3204018,213947,213948,213953,213952
CQUAD4,1213498,3204018,213948,213949,213954,213953
CQUAD4,1213499,3204018,213949,213950,213955,213954
$ ... 20 like lines cut
$ CASE CM004_WEB_18
$ =================
$HMNAME COMP 2204019 "CM004_WEB_18"
$HMCOMP ID 2204019
CQUAD4,1213520,3204019,213981,213982,213987,213986
CQUAD4,1213521,3204019,213982,213983,213988,213987
CQUAD4,1213522,3204019,213983,213984,213989,213988
CQUAD4,1213523,3204019,213984,213985,213990,213989
CQUAD4,1213524,3204019,213986,213987,213992,213991
CQUAD4,1213525,3204019,213987,213988,213993,213992
CQUAD4,1213526,3204019,213988,213989,213994,213993
CQUAD4,1213527,3204019,213989,213990,213995,213994
CQUAD4,1213528,3204019,213991,213992,213997,213996
CQUAD4,1213529,3204019,213992,213993,213998,213997
CQUAD4,1213530,3204019,213993,213994,213999,213998
CQUAD4,1213531,3204019,213994,213995,214000,213999
CQUAD4,1213532,3204019,213996,213997,214002,214001
CQUAD4,1213533,3204019,213997,213998,214003,214002
CQUAD4,1213534,3204019,213998,213999,214004,214003
CQUAD4,1213535,3204019,213999,214000,214005,214004
CQUAD4,1213536,3204019,214001,214002,214007,214006
CQUAD4,1213537,3204019,214002,214003,214008,214007
CQUAD4,1213538,3204019,214003,214004,214009,214008
CQUAD4,1213539,3204019,214004,214005,214010,214009
$ ... 20 like lines cut
$ CASE CM004_WEB_19
$ =================
$HMNAME COMP 2204020 "CM004_WEB_19"
$HMCOMP ID 2204020
CQUAD4,1213560,3204020,214036,214037,214042,214041
CQUAD4,1213561,3204020,214037,214038,214043,214042
CQUAD4,1213562,3204020,214038,214039,214044,214043
CQUAD4,1213563,3204020,214039,214040,214045,214044
CQUAD4,1213564,3204020,214041,214042,214047,214046
CQUAD4,1213565,3204020,214042,214043,214048,214047
CQUAD4,1213566,3204020,214043,214044,214049,214048
CQUAD4,1213567,3204020,214044,214045,214050,214049
CQUAD4,1213568,3204020,214046,214047,214052,214051
CQUAD4,1213569,3204020,214047,214048,214053,214052
CQUAD4,1213570,3204020,214048,214049,214054,214053
CQUAD4,1213571,3204020,214049,214050,214055,214054
CQUAD4,1213572,3204020,214051,214052,214057,214056
CQUAD4,1213573,3204020,214052,214053,214058,214057
CQUAD4,1213574,3204020,214053,214054,214059,214058
CQUAD4,1213575,3204020,214054,214055,214060,214059
CQUAD4,1213576,3204020,214056,214057,214062,214061
CQUAD4,1213577,3204020,214057,214058,214063,214062
CQUAD4,1213578,3204020,214058,214059,214064,214063
CQUAD4,1213579,3204020,214059,214060,214065,214064
$ ... 20 like lines cut
$ CASE CM004_WEB_20
$ =================
$HMNAME COMP 2204021 "CM004_WEB_20"
$HMCOMP ID 2204021
CQUAD4,1213600,3204021,214091,214092,214097,214096
CQUAD4,1213601,3204021,214092,214093,214098,214097
CQUAD4,1213602,3204021,214093,214094,214099,214098
CQUAD4,1213603,3204021,214094,214095,214100,214099
CQUAD4,1213604,3204021,214096,214097,214102,214101
CQUAD4,1213605,3204021,214097,214098,214103,214102
CQUAD4,1213606,3204021,214098,214099,214104,214103
CQUAD4,1213607,3204021,214099,214100,214105,214104
CQUAD4,1213608,3204021,214101,214102,214107,214106
CQUAD4,1213609,3204021,214102,214103,214108,214107
CQUAD4,1213610,3204021,214103,214104,214109,214108
CQUAD4,1213611,3204021,214104,214105,214110,214109
CQUAD4,1213612,3204021,214106,214107,214112,214111
CQUAD4,1213613,3204021,214107,214108,214113,214112
CQUAD4,1213614,3204021,214108,214109,214114,214113
CQUAD4,1213615,3204021,214109,214110,214115,214114
CQUAD4,1213616,3204021,214111,214112,214117,214116
CQUAD4,1213617,3204021,214112,214113,214118,214117
CQUAD4,1213618,3204021,214113,214114,214119,214118
CQUAD4,1213619,3204021,214114,214115,214120,214119
$ ... 20 like lines cut
$ CASE CM004_WEB_21
$ =================
$HMNAME COMP 2204022 "CM004_WEB_21"
$HMCOMP ID 2204022
CQUAD4,1213640,3204022,214146,214147,214152,214151
CQUAD4,1213641,3204022,214147,214148,214153,214152
CQUAD4,1213642,3204022,214148,214149,214154,214153
CQUAD4,1213643,3204022,214149,214150,214155,214154
CQUAD4,1213644,3204022,214151,214152,214157,214156
CQUAD4,1213645,3204022,214152,214153,214158,214157
CQUAD4,1213646,3204022,214153,214154,214159,214158
CQUAD4,1213647,3204022,214154,214155,214160,214159
CQUAD4,1213648,3204022,214156,214157,214162,214161
CQUAD4,1213649,3204022,214157,214158,214163,214162
CQUAD4,1213650,3204022,214158,214159,214164,214163
CQUAD4,1213651,3204022,214159,214160,214165,214164
CQUAD4,1213652,3204022,214161,214162,214167,214166
CQUAD4,1213653,3204022,214162,214163,214168,214167
CQUAD4,1213654,3204022,214163,214164,214169,214168
CQUAD4,1213655,3204022,214164,214165,214170,214169
CQUAD4,1213656,3204022,214166,214167,214172,214171
CQUAD4,1213657,3204022,214167,214168,214173,214172
CQUAD4,1213658,3204022,214168,214169,214174,214173
CQUAD4,1213659,3204022,214169,214170,214175,214174
$ ... 20 like lines cut
$ CASE CM004_WEB_22
$ =================
$HMNAME COMP 2204023 "CM004_WEB_22"
$HMCOMP ID 2204023
CQUAD4,1213680,3204023,214201,214202,214207,214206
CQUAD4,1213681,3204023,214202,214203,214208,214207
CQUAD4,1213682,3204023,214203,214204,214209,214208
CQUAD4,1213683,3204023,214204,214205,214210,214209
CQUAD4,1213684,3204023,214206,214207,214212,214211
CQUAD4,1213685,3204023,214207,214208,214213,214212
CQUAD4,1213686,3204023,214208,214209,214214,214213
CQUAD4,1213687,3204023,214209,214210,214215,214214
CQUAD4,1213688,3204023,214211,214212,214217,214216
CQUAD4,1213689,3204023,214212,214213,214218,214217
CQUAD4,1213690,3204023,214213,214214,214219,214218
CQUAD4,1213691,3204023,214214,214215,214220,214219
CQUAD4,1213692,3204023,214216,214217,214222,214221
CQUAD4,1213693,3204023,214217,214218,214223,214222
CQUAD4,1213694,3204023,214218,214219,214224,214223
CQUAD4,1213695,3204023,214219,214220,214225,214224
CQUAD4,1213696,3204023,214221,214222,214227,214226
CQUAD4,1213697,3204023,214222,214223,214228,214227
CQUAD4,1213698,3204023,214223,214224,214229,214228
CQUAD4,1213699,3204023,214224,214225,214230,214229
$ ... 20 like lines cut
$ CASE CM004_WEB_23
$ =================
$HMNAME COMP 2204024 "CM004_WEB_23"
$HMCOMP ID 2204024
CQUAD4,1213720,3204024,214256,214257,214262,214261
CQUAD4,1213721,3204024,214257,214258,214263,214262
CQUAD4,1213722,3204024,214258,214259,214264,214263
CQUAD4,1213723,3204024,214259,214260,214265,214264
CQUAD4,1213724,3204024,214261,214262,214267,214266
CQUAD4,1213725,3204024,214262,214263,214268,214267
CQUAD4,1213726,3204024,214263,214264,214269,214268
CQUAD4,1213727,3204024,214264,214265,214270,214269
CQUAD4,1213728,3204024,214266,214267,214272,214271
CQUAD4,1213729,3204024,214267,214268,214273,214272
CQUAD4,1213730,3204024,214268,214269,214274,214273
CQUAD4,1213731,3204024,214269,214270,214275,214274
CQUAD4,1213732,3204024,214271,214272,214277,214276
CQUAD4,1213733,3204024,214272,214273,214278,214277
CQUAD4,1213734,3204024,214273,214274,214279,214278
CQUAD4,1213735,3204024,214274,214275,214280,214279
CQUAD4,1213736,3204024,214276,214277,214282,214281
CQUAD4,1213737,3204024,214277,214278,214283,214282
CQUAD4,1213738,3204024,214278,214279,214284,214283
CQUAD4,1213739,3204024,214279,214280,214285,214284
$ ... 20 like lines cut
$ CASE CM004_WEB_24
$ =================
$HMNAME COMP 2204025 "CM004_WEB_24"
$HMCOMP ID 2204025
CQUAD4,1213760,3204025,214311,214312,214317,214316
CQUAD4,1213761,3204025,214312,214313,214318,214317
CQUAD4,1213762,3204025,214313,214314,214319,214318
CQUAD4,1213763,3204025,214314,214315,214320,214319
CQUAD4,1213764,3204025,214316,214317,214322,214321
CQUAD4,1213765,3204025,214317,214318,214323,214322
CQUAD4,1213766,3204025,214318,214319,214324,214323
CQUAD4,1213767,3204025,214319,214320,214325,214324
CQUAD4,1213768,3204025,214321,214322,214327,214326
CQUAD4,1213769,3204025,214322,214323,214328,214327
CQUAD4,1213770,3204025,214323,214324,214329,214328
CQUAD4,1213771,3204025,214324,214325,214330,214329
CQUAD4,1213772,3204025,214326,214327,214332,214331
CQUAD4,1213773,3204025,214327,214328,214333,214332
CQUAD4,1213774,3204025,214328,214329,214334,214333
CQUAD4,1213775,3204025,214329,214330,214335,214334
CQUAD4,1213776,3204025,214331,214332,214337,214336
CQUAD4,1213777,3204025,214332,214333,214338,214337
CQUAD4,1213778,3204025,214333,214334,214339,214338
CQUAD4,1213779,3204025,214334,214335,214340,214339
$ ... 20 like lines cut
$ CASE CM004_WEB_25
$ =================
$HMNAME COMP 2204026 "CM004_WEB_25"
$HMCOMP ID 2204026
CQUAD4,1213800,3204026,214366,214367,214372,214371
CQUAD4,1213801,3204026,214367,214368,214373,214372
CQUAD4,1213802,3204026,214368,214369,214374,214373
CQUAD4,1213803,3204026,214369,214370,214375,214374
CQUAD4,1213804,3204026,214371,214372,214377,214376
CQUAD4,1213805,3204026,214372,214373,214378,214377
CQUAD4,1213806,3204026,214373,214374,214379,214378
CQUAD4,1213807,3204026,214374,214375,214380,214379
CQUAD4,1213808,3204026,214376,214377,214382,214381
CQUAD4,1213809,3204026,214377,214378,214383,214382
CQUAD4,1213810,3204026,214378,214379,214384,214383
CQUAD4,1213811,3204026,214379,214380,214385,214384
CQUAD4,1213812,3204026,214381,214382,214387,214386
CQUAD4,1213813,3204026,214382,214383,214388,214387
CQUAD4,1213814,3204026,214383,214384,214389,214388
CQUAD4,1213815,3204026,214384,214385,214390,214389
CQUAD4,1213816,3204026,214386,214387,214392,214391
CQUAD4,1213817,3204026,214387,214388,214393,214392
CQUAD4,1213818,3204026,214388,214389,214394,214393
CQUAD4,1213819,3204026,214389,214390,214395,214394
$ ... 20 like lines cut
$ CASE CM004_WEB_26
$ =================
$HMNAME COMP 2204027 "CM004_WEB_26"
$HMCOMP ID 2204027
CQUAD4,1213840,3204027,214421,214422,214427,214426
CQUAD4,1213841,3204027,214422,214423,214428,214427
CQUAD4,1213842,3204027,214423,214424,214429,214428
CQUAD4,1213843,3204027,214424,214425,214430,214429
CQUAD4,1213844,3204027,214426,214427,214432,214431
CQUAD4,1213845,3204027,214427,214428,214433,214432
CQUAD4,1213846,3204027,214428,214429,214434,214433
CQUAD4,1213847,3204027,214429,214430,214435,214434
CQUAD4,1213848,3204027,214431,214432,214437,214436
CQUAD4,1213849,3204027,214432,214433,214438,214437
CQUAD4,1213850,3204027,214433,214434,214439,214438
CQUAD4,1213851,3204027,214434,214435,214440,214439
CQUAD4,1213852,3204027,214436,214437,214442,214441
CQUAD4,1213853,3204027,214437,214438,214443,214442
CQUAD4,1213854,3204027,214438,214439,214444,214443
CQUAD4,1213855,3204027,214439,214440,214445,214444
CQUAD4,1213856,3204027,214441,214442,214447,214446
CQUAD4,1213857,3204027,214442,214443,214448,214447
CQUAD4,1213858,3204027,214443,214444,214449,214448
CQUAD4,1213859,3204027,214444,214445,214450,214449
$ ... 20 like lines cut
$ CASE CM004_WEB_27
$ =================
$HMNAME COMP 2204028 "CM004_WEB_27"
$HMCOMP ID 2204028
CQUAD4,1213880,3204028,214476,214477,214482,214481
CQUAD4,1213881,3204028,214477,214478,214483,214482
CQUAD4,1213882,3204028,214478,214479,214484,214483
CQUAD4,1213883,3204028,214479,214480,214485,214484
CQUAD4,1213884,3204028,214481,214482,214487,214486
CQUAD4,1213885,3204028,214482,214483,214488,214487
CQUAD4,1213886,3204028,214483,214484,214489,214488
CQUAD4,1213887,3204028,214484,214485,214490,214489
CQUAD4,1213888,3204028,214486,214487,214492,214491
CQUAD4,1213889,3204028,214487,214488,214493,214492
CQUAD4,1213890,3204028,214488,214489,214494,214493
CQUAD4,1213891,3204028,214489,214490,214495,214494
CQUAD4,1213892,3204028,214491,214492,214497,214496
CQUAD4,1213893,3204028,214492,214493,214498,214497
CQUAD4,1213894,3204028,214493,214494,214499,214498
CQUAD4,1213895,3204028,214494,214495,214500,214499
CQUAD4,1213896,3204028,214496,214497,214502,214501
CQUAD4,1213897,3204028,214497,214498,214503,214502
CQUAD4,1213898,3204028,214498,214499,214504,214503
CQUAD4,1213899,3204028,214499,214500,214505,214504
$ ... 20 like lines cut
$ CASE CM004_WEB_28
$ =================
$HMNAME COMP 2204029 "CM004_WEB_28"
$HMCOMP ID 2204029
CQUAD4,1213920,3204029,214531,214532,214537,214536
CQUAD4,1213921,3204029,214532,214533,214538,214537
CQUAD4,1213922,3204029,214533,214534,214539,214538
CQUAD4,1213923,3204029,214534,214535,214540,214539
CQUAD4,1213924,3204029,214536,214537,214542,214541
CQUAD4,1213925,3204029,214537,214538,214543,214542
CQUAD4,1213926,3204029,214538,214539,214544,214543
CQUAD4,1213927,3204029,214539,214540,214545,214544
CQUAD4,1213928,3204029,214541,214542,214547,214546
CQUAD4,1213929,3204029,214542,214543,214548,214547
CQUAD4,1213930,3204029,214543,214544,214549,214548
CQUAD4,1213931,3204029,214544,214545,214550,214549
CQUAD4,1213932,3204029,214546,214547,214552,214551
CQUAD4,1213933,3204029,214547,214548,214553,214552
CQUAD4,1213934,3204029,214548,214549,214554,214553
CQUAD4,1213935,3204029,214549,214550,214555,214554
CQUAD4,1213936,3204029,214551,214552,214557,214556
CQUAD4,1213937,3204029,214552,214553,214558,214557
CQUAD4,1213938,3204029,214553,214554,214559,214558
CQUAD4,1213939,3204029,214554,214555,214560,214559
$ ... 20 like lines cut
$ CASE CM004_WEB_29
$ =================
$HMNAME COMP 2204030 "CM004_WEB_29"
$HMCOMP ID 2204030
CQUAD4,1213960,3204030,214586,214587,214592,214591
CQUAD4,1213961,3204030,214587,214588,214593,214592
CQUAD4,1213962,3204030,214588,214589,214594,214593
CQUAD4,1213963,3204030,214589,214590,214595,214594
CQUAD4,1213964,3204030,214591,214592,214597,214596
CQUAD4,1213965,3204030,214592,214593,214598,214597
CQUAD4,1213966,3204030,214593,214594,214599,214598
CQUAD4,1213967,3204030,214594,214595,214600,214599
CQUAD4,1213968,3204030,214596,214597,214602,214601
CQUAD4,1213969,3204030,214597,214598,214603,214602
CQUAD4,1213970,3204030,214598,214599,214604,214603
CQUAD4,1213971,3204030,214599,214600,214605,214604
CQUAD4,1213972,3204030,214601,214602,214607,214606
CQUAD4,1213973,3204030,214602,214603,214608,214607
CQUAD4,1213974,3204030,214603,214604,214609,214608
CQUAD4,1213975,3204030,214604,214605,214610,214609
CQUAD4,1213976,3204030,214606,214607,214612,214611
CQUAD4,1213977,3204030,214607,214608,214613,214612
CQUAD4,1213978,3204030,214608,214609,214614,214613
CQUAD4,1213979,3204030,214609,214610,214615,214614
$ ... 20 like lines cut
PSHELL,3204000,1,10
PSHELL,3204001,1,6
PSHELL,3204002,1,6
PSHELL,3204003,1,6
PSHELL,3204004,1,6
PSHELL,3204005,1,6
PSHELL,3204006,1,6
PSHELL,3204007,1,6
PSHELL,3204008,1,6
PSHELL,3204009,1,6
PSHELL,3204010,1,6
PSHELL,3204011,1,6
PSHELL,3204012,1,6
PSHELL,3204013,1,6
PSHELL,3204014,1,6
PSHELL,3204015,1,6
PSHELL,3204016,1,6
PSHELL,3204017,1,6
PSHELL,3204018,1,6
PSHELL,3204019,1,6
$ ... 11 like lines cut
MAT1,1,210000,,0.3
ENDDATA
