$ HMWF_OFFLINE_AUTO_SEAM_MODEL
BEGIN BULK
GRID,33000,,0,-100,0
GRID,33001,,20,-100,0
GRID,33002,,40,-100,0
GRID,33003,,60,-100,0
GRID,33004,,80,-100,0
GRID,33005,,100,-100,0
GRID,33006,,120,-100,0
GRID,33007,,140,-100,0
GRID,33008,,160,-100,0
GRID,33009,,180,-100,0
GRID,33010,,200,-100,0
GRID,33011,,220,-100,0
GRID,33012,,240,-100,0
GRID,33013,,260,-100,0
GRID,33014,,280,-100,0
GRID,33015,,300,-100,0
GRID,33016,,320,-100,0
GRID,33017,,340,-100,0
GRID,33018,,360,-100,0
GRID,33019,,380,-100,0
$ ... 267 like lines cut
$ CASE TC033_TGT_BASE
$ ===================
$HMNAME COMP 53000 "TC033_TGT_BASE"
$HMCOMP ID 53000
CQUAD4,43000,63000,33000,33001,33022,33021
CQUAD4,43001,63000,33001,33002,33023,33022
CQUAD4,43002,63000,33002,33003,33024,33023
CQUAD4,43003,63000,33003,33004,33025,33024
CQUAD4,43004,63000,33004,33005,33026,33025
CQUAD4,43005,63000,33005,33006,33027,33026
CQUAD4,43006,63000,33006,33007,33028,33027
CQUAD4,43007,63000,33007,33008,33029,33028
CQUAD4,43008,63000,33008,33009,33030,33029
CQUAD4,43009,63000,33009,33010,33031,33030
CQUAD4,43010,63000,33010,33011,33032,33031
CQUAD4,43011,63000,33011,33012,33033,33032
CQUAD4,43012,63000,33012,33013,33034,33033
CQUAD4,43013,63000,33013,33014,33035,33034
CQUAD4,43014,63000,33014,33015,33036,33035
CQUAD4,43015,63000,33015,33016,33037,33036
CQUAD4,43016,63000,33016,33017,33038,33037
CQUAD4,43017,63000,33017,33018,33039,33038
CQUAD4,43018,63000,33018,33019,33040,33039
CQUAD4,43019,63000,33019,33020,33041,33040
$ ... 180 like lines cut
$ CASE TC033_SRC_FLUSH
$ ====================
$HMNAME COMP 53001 "TC033_SRC_FLUSH"
$HMCOMP ID 53001
CQUAD4,43200,63001,33231,33232,33246,33245
CQUAD4,43201,63001,33232,33233,33247,33246
CQUAD4,43202,63001,33233,33234,33248,33247
CQUAD4,43203,63001,33234,33235,33249,33248
CQUAD4,43204,63001,33235,33236,33250,33249
CQUAD4,43205,63001,33236,33237,33251,33250
CQUAD4,43206,63001,33237,33238,33252,33251
CQUAD4,43207,63001,33238,33239,33253,33252
CQUAD4,43208,63001,33239,33240,33254,33253
CQUAD4,43209,63001,33240,33241,33255,33254
CQUAD4,43210,63001,33241,33242,33256,33255
CQUAD4,43211,63001,33242,33243,33257,33256
CQUAD4,43212,63001,33243,33244,33258,33257
$ CASE TC033_SRC_PROUD
$ ====================
$HMNAME COMP 53002 "TC033_SRC_PROUD"
$HMCOMP ID 53002
CQUAD4,43213,63002,33259,33260,33274,33273
CQUAD4,43214,63002,33260,33261,33275,33274
CQUAD4,43215,63002,33261,33262,33276,33275
CQUAD4,43216,63002,33262,33263,33277,33276
CQUAD4,43217,63002,33263,33264,33278,33277
CQUAD4,43218,63002,33264,33265,33279,33278
CQUAD4,43219,63002,33265,33266,33280,33279
CQUAD4,43220,63002,33266,33267,33281,33280
CQUAD4,43221,63002,33267,33268,33282,33281
CQUAD4,43222,63002,33268,33269,33283,33282
CQUAD4,43223,63002,33269,33270,33284,33283
CQUAD4,43224,63002,33270,33271,33285,33284
CQUAD4,43225,63002,33271,33272,33286,33285
PSHELL,63000,1,10
PSHELL,63001,1,6
PSHELL,63002,1,6
MAT1,1,210000,,0.3
ENDDATA
