$ HMWF_OFFLINE_AUTO_SEAM_MODEL
BEGIN BULK
GRID,1,,0,-20,0
GRID,2,,10,-20,0
GRID,3,,20,-20,0
GRID,4,,0,-10,0
GRID,5,,10,-10,0
GRID,6,,20,-10,0
GRID,7,,0,0,0
GRID,8,,10,0,0
GRID,9,,20,0,0
GRID,10,,0,10,0
GRID,11,,10,10,0
GRID,12,,20,10,0
GRID,13,,0,20,0
GRID,14,,10,20,0
GRID,15,,20,20,0
GRID,16,,20,-20,0
GRID,17,,30,-20,0
GRID,18,,40,-20,0
GRID,19,,20,-10,0
GRID,20,,30,-10,0
$ ... 67 like lines cut
$HMNAME COMP 1 "BASE1_T2"
$HMCOMP ID 1
CQUAD4,1,1,1,2,5,4
CQUAD4,2,1,2,3,6,5
CQUAD4,3,1,4,5,8,7
CQUAD4,4,1,5,6,9,8
CQUAD4,5,1,7,8,11,10
CQUAD4,6,1,8,9,12,11
CQUAD4,7,1,10,11,14,13
CQUAD4,8,1,11,12,15,14
$HMNAME COMP 2 "BASE2_T2"
$HMCOMP ID 2
CQUAD4,9,2,16,17,20,19
CQUAD4,10,2,17,18,21,20
CQUAD4,11,2,19,20,23,22
CQUAD4,12,2,20,21,24,23
CQUAD4,13,2,22,23,26,25
CQUAD4,14,2,23,24,27,26
CQUAD4,15,2,25,26,29,28
CQUAD4,16,2,26,27,30,29
$HMNAME COMP 3 "BASE3_T2"
$HMCOMP ID 3
CQUAD4,17,3,31,32,35,34
CQUAD4,18,3,32,33,36,35
CQUAD4,19,3,34,35,38,37
CQUAD4,20,3,35,36,39,38
CQUAD4,21,3,37,38,41,40
CQUAD4,22,3,38,39,42,41
CQUAD4,23,3,40,41,44,43
CQUAD4,24,3,41,42,45,44
$HMNAME COMP 4 "BASE4_T2"
$HMCOMP ID 4
CQUAD4,25,4,46,47,50,49
CQUAD4,26,4,47,48,51,50
CQUAD4,27,4,49,50,53,52
CQUAD4,28,4,50,51,54,53
CQUAD4,29,4,52,53,56,55
CQUAD4,30,4,53,54,57,56
CQUAD4,31,4,55,56,59,58
CQUAD4,32,4,56,57,60,59
$HMNAME COMP 5 "CENTER_WEB_T1"
$HMCOMP ID 5
CQUAD4,33,5,61,62,71,70
CQUAD4,34,5,62,63,72,71
CQUAD4,35,5,63,64,73,72
CQUAD4,36,5,64,65,74,73
CQUAD4,37,5,65,66,75,74
CQUAD4,38,5,66,67,76,75
CQUAD4,39,5,67,68,77,76
CQUAD4,40,5,68,69,78,77
CQUAD4,41,5,70,71,80,79
CQUAD4,42,5,71,72,81,80
CQUAD4,43,5,72,73,82,81
CQUAD4,44,5,73,74,83,82
CQUAD4,45,5,74,75,84,83
CQUAD4,46,5,75,76,85,84
CQUAD4,47,5,76,77,86,85
CQUAD4,48,5,77,78,87,86
PSHELL,1,1,2
PSHELL,2,1,2
PSHELL,3,1,2
PSHELL,4,1,2
PSHELL,5,1,1
MAT1,1,210000,,0.3
ENDDATA
