$ HMWF_OFFLINE_AUTO_SEAM_MODEL
BEGIN BULK
GRID,48000,,0,-100,0
GRID,48001,,20,-100,0
GRID,48002,,40,-100,0
GRID,48003,,60,-100,0
GRID,48004,,80,-100,0
GRID,48005,,100,-100,0
GRID,48006,,120,-100,0
GRID,48007,,140,-100,0
GRID,48008,,160,-100,0
GRID,48009,,180,-100,0
GRID,48010,,200,-100,0
GRID,48011,,220,-100,0
GRID,48012,,240,-100,0
GRID,48013,,260,-100,0
GRID,48014,,280,-100,0
GRID,48015,,300,-100,0
GRID,48016,,320,-100,0
GRID,48017,,340,-100,0
GRID,48018,,360,-100,0
GRID,48019,,380,-100,0
$ ... 247 like lines cut
$ CASE TC048_TGT_BASE
$ ===================
$HMNAME COMP 68000 "TC048_TGT_BASE"
$HMCOMP ID 68000
CQUAD4,58000,78000,48000,48001,48022,48021
CQUAD4,58001,78000,48001,48002,48023,48022
CQUAD4,58002,78000,48002,48003,48024,48023
CQUAD4,58003,78000,48003,48004,48025,48024
CQUAD4,58004,78000,48004,48005,48026,48025
CQUAD4,58005,78000,48005,48006,48027,48026
CQUAD4,58006,78000,48006,48007,48028,48027
CQUAD4,58007,78000,48007,48008,48029,48028
CQUAD4,58008,78000,48008,48009,48030,48029
CQUAD4,58009,78000,48009,48010,48031,48030
CQUAD4,58010,78000,48010,48011,48032,48031
CQUAD4,58011,78000,48011,48012,48033,48032
CQUAD4,58012,78000,48012,48013,48034,48033
CQUAD4,58013,78000,48013,48014,48035,48034
CQUAD4,58014,78000,48014,48015,48036,48035
CQUAD4,58015,78000,48015,48016,48037,48036
CQUAD4,58016,78000,48016,48017,48038,48037
CQUAD4,58017,78000,48017,48018,48039,48038
CQUAD4,58018,78000,48018,48019,48040,48039
CQUAD4,58019,78000,48019,48020,48041,48040
$ ... 180 like lines cut
$ CASE TC048_SRC_WEB
$ ==================
$HMNAME COMP 68001 "TC048_SRC_WEB"
$HMCOMP ID 68001
CQUAD4,58200,78001,48231,48232,48243,48242
CQUAD4,58201,78001,48232,48233,48244,48243
CQUAD4,58202,78001,48233,48234,48245,48244
CQUAD4,58203,78001,48234,48235,48246,48245
CQUAD4,58204,78001,48235,48236,48247,48246
CQUAD4,58205,78001,48236,48237,48248,48247
CQUAD4,58206,78001,48237,48238,48249,48248
CQUAD4,58207,78001,48238,48239,48250,48249
CQUAD4,58208,78001,48239,48240,48251,48250
CQUAD4,58209,78001,48240,48241,48252,48251
$ CASE TC048_SRC_BRACKET
$ ======================
$HMNAME COMP 68002 "TC048_SRC_BRACKET"
$HMCOMP ID 68002
CQUAD4,58210,78002,48253,48254,48261,48260
CQUAD4,58211,78002,48254,48255,48262,48261
CQUAD4,58212,78002,48255,48256,48263,48262
CQUAD4,58213,78002,48256,48257,48264,48263
CQUAD4,58214,78002,48257,48258,48265,48264
CQUAD4,58215,78002,48258,48259,48266,48265
PSHELL,78000,1,10
PSHELL,78001,1,6
PSHELL,78002,1,6
MAT1,1,210000,,0.3
ENDDATA
