$ HMWF_OFFLINE_AUTO_SEAM_MODEL
BEGIN BULK
GRID,10000,,0,-100,0
GRID,10001,,20,-100,0
GRID,10002,,40,-100,0
GRID,10003,,60,-100,0
GRID,10004,,80,-100,0
GRID,10005,,100,-100,0
GRID,10006,,120,-100,0
GRID,10007,,140,-100,0
GRID,10008,,160,-100,0
GRID,10009,,180,-100,0
GRID,10010,,0,-80,0
GRID,10011,,20,-80,0
GRID,10012,,40,-80,0
GRID,10013,,60,-80,0
GRID,10014,,80,-80,0
GRID,10015,,100,-80,0
GRID,10016,,120,-80,0
GRID,10017,,140,-80,0
GRID,10018,,160,-80,0
GRID,10019,,180,-80,0
$ ... 541 like lines cut
$ CASE TC010_TGT_BASE
$ ===================
$HMNAME COMP 30000 "TC010_TGT_BASE"
$HMCOMP ID 30000
CQUAD4,20000,40000,10000,10001,10011,10010
CQUAD4,20001,40000,10001,10002,10012,10011
CQUAD4,20002,40000,10002,10003,10013,10012
CQUAD4,20003,40000,10003,10004,10014,10013
CQUAD4,20004,40000,10004,10005,10015,10014
CQUAD4,20005,40000,10005,10006,10016,10015
CQUAD4,20006,40000,10006,10007,10017,10016
CQUAD4,20007,40000,10007,10008,10018,10017
CQUAD4,20008,40000,10008,10009,10019,10018
CQUAD4,20009,40000,10010,10011,10021,10020
CQUAD4,20010,40000,10011,10012,10022,10021
CQUAD4,20011,40000,10012,10013,10023,10022
CQUAD4,20012,40000,10013,10014,10024,10023
CQUAD4,20013,40000,10014,10015,10025,10024
CQUAD4,20014,40000,10015,10016,10026,10025
CQUAD4,20015,40000,10016,10017,10027,10026
CQUAD4,20016,40000,10017,10018,10028,10027
CQUAD4,20017,40000,10018,10019,10029,10028
CQUAD4,20018,40000,10020,10021,10031,10030
CQUAD4,20019,40000,10021,10022,10032,10031
$ ... 160 like lines cut
$ CASE TC010_SRC_WEB
$ ==================
$HMNAME COMP 30001 "TC010_SRC_WEB"
$HMCOMP ID 30001
CQUAD4,20180,40001,10220,10221,10252,10251
CQUAD4,20181,40001,10221,10222,10253,10252
CQUAD4,20182,40001,10222,10223,10254,10253
CQUAD4,20183,40001,10223,10224,10255,10254
CQUAD4,20184,40001,10224,10225,10256,10255
CQUAD4,20185,40001,10225,10226,10257,10256
CQUAD4,20186,40001,10226,10227,10258,10257
CQUAD4,20187,40001,10227,10228,10259,10258
CQUAD4,20188,40001,10228,10229,10260,10259
CQUAD4,20189,40001,10229,10230,10261,10260
CQUAD4,20190,40001,10230,10231,10262,10261
CQUAD4,20191,40001,10231,10232,10263,10262
CQUAD4,20192,40001,10232,10233,10264,10263
CQUAD4,20193,40001,10233,10234,10265,10264
CQUAD4,20194,40001,10234,10235,10266,10265
CQUAD4,20195,40001,10235,10236,10267,10266
CQUAD4,20196,40001,10236,10237,10268,10267
CQUAD4,20197,40001,10237,10238,10269,10268
CQUAD4,20198,40001,10238,10239,10270,10269
CQUAD4,20199,40001,10239,10240,10271,10270
$ ... 280 like lines cut
PSHELL,40000,1,10
PSHELL,40001,1,6
MAT1,1,210000,,0.3
ENDDATA
