$ HMWF_OFFLINE_AUTO_SEAM_MODEL
BEGIN BULK
GRID,47000,,0,0,0
GRID,47001,,20,0,0
GRID,47002,,40,0,0
GRID,47003,,60,0,0
GRID,47004,,80,0,0
GRID,47005,,100,0,0
GRID,47006,,120,0,0
GRID,47007,,140,0,0
GRID,47008,,160,0,0
GRID,47009,,180,0,0
GRID,47010,,200,0,0
GRID,47011,,220,0,0
GRID,47012,,240,0,0
GRID,47013,,260,0,0
GRID,47014,,280,0,0
GRID,47015,,300,0,0
GRID,47016,,320,0,0
GRID,47017,,340,0,0
GRID,47018,,360,0,0
GRID,47019,,380,0,0
$ ... 265 like lines cut
$ CASE TC047_TGT_BASE
$ ===================
$HMNAME COMP 67000 "TC047_TGT_BASE"
$HMCOMP ID 67000
CQUAD4,57000,77000,47000,47001,47022,47021
CQUAD4,57001,77000,47001,47002,47023,47022
CQUAD4,57002,77000,47002,47003,47024,47023
CQUAD4,57003,77000,47003,47004,47025,47024
CQUAD4,57004,77000,47004,47005,47026,47025
CQUAD4,57005,77000,47005,47006,47027,47026
CQUAD4,57006,77000,47006,47007,47028,47027
CQUAD4,57007,77000,47007,47008,47029,47028
CQUAD4,57008,77000,47008,47009,47030,47029
CQUAD4,57009,77000,47009,47010,47031,47030
CQUAD4,57010,77000,47010,47011,47032,47031
CQUAD4,57011,77000,47011,47012,47033,47032
CQUAD4,57012,77000,47012,47013,47034,47033
CQUAD4,57013,77000,47013,47014,47035,47034
CQUAD4,57014,77000,47014,47015,47036,47035
CQUAD4,57015,77000,47015,47016,47037,47036
CQUAD4,57016,77000,47016,47017,47038,47037
CQUAD4,57017,77000,47017,47018,47039,47038
CQUAD4,57018,77000,47018,47019,47040,47039
CQUAD4,57019,77000,47019,47020,47041,47040
$ ... 180 like lines cut
$ CASE TC047_SRC_WALL
$ ===================
$HMNAME COMP 67001 "TC047_SRC_WALL"
$HMCOMP ID 67001
CQUAD4,57200,77001,47231,47232,47247,47246
CQUAD4,57201,77001,47232,47233,47248,47247
CQUAD4,57202,77001,47233,47234,47249,47248
CQUAD4,57203,77001,47234,47235,47250,47249
CQUAD4,57204,77001,47235,47236,47251,47250
CQUAD4,57205,77001,47236,47237,47252,47251
CQUAD4,57206,77001,47237,47238,47253,47252
CQUAD4,57207,77001,47238,47239,47254,47253
CQUAD4,57208,77001,47239,47240,47255,47254
CQUAD4,57209,77001,47240,47241,47256,47255
CQUAD4,57210,77001,47241,47242,47257,47256
CQUAD4,57211,77001,47242,47243,47258,47257
CQUAD4,57212,77001,47243,47244,47259,47258
CQUAD4,57213,77001,47244,47245,47260,47259
CQUAD4,57214,77001,47261,47262,47274,47273
CQUAD4,57215,77001,47262,47263,47275,47274
CQUAD4,57216,77001,47263,47264,47276,47275
CQUAD4,57217,77001,47264,47265,47277,47276
CQUAD4,57218,77001,47265,47266,47278,47277
CQUAD4,57219,77001,47266,47267,47279,47278
$ ... 5 like lines cut
PSHELL,77000,1,10
PSHELL,77001,1,6
MAT1,1,210000,,0.3
ENDDATA
