$ HMWF_OFFLINE_AUTO_SEAM_MODEL
BEGIN BULK
GRID,1,,-10,-30,0
GRID,2,,0,-30,0
GRID,3,,10,-30,0
GRID,4,,20,-30,0
GRID,5,,30,-30,0
GRID,6,,40,-30,0
GRID,7,,50,-30,0
GRID,8,,60,-30,0
GRID,9,,70,-30,0
GRID,10,,-10,-20,0
GRID,11,,0,-20,0
GRID,12,,10,-20,0
GRID,13,,20,-20,0
GRID,14,,30,-20,0
GRID,15,,40,-20,0
GRID,16,,50,-20,0
GRID,17,,60,-20,0
GRID,18,,70,-20,0
GRID,19,,-10,-10,0
GRID,20,,0,-10,0
$ ... 64 like lines cut
$HMNAME COMP 1 "BASE_T2"
$HMCOMP ID 1
CQUAD4,1,1,1,2,11,10
CQUAD4,2,1,2,3,12,11
CQUAD4,3,1,3,4,13,12
CQUAD4,4,1,4,5,14,13
CQUAD4,5,1,5,6,15,14
CQUAD4,6,1,6,7,16,15
CQUAD4,7,1,7,8,17,16
CQUAD4,8,1,8,9,18,17
CQUAD4,9,1,10,11,20,19
CQUAD4,10,1,11,12,21,20
CQUAD4,11,1,12,13,22,21
CQUAD4,12,1,13,14,23,22
CQUAD4,13,1,14,15,24,23
CQUAD4,14,1,15,16,25,24
CQUAD4,15,1,16,17,26,25
CQUAD4,16,1,17,18,27,26
CQUAD4,17,1,19,20,29,28
CQUAD4,18,1,20,21,30,29
CQUAD4,19,1,21,22,31,30
CQUAD4,20,1,22,23,32,31
$ ... 28 like lines cut
$HMNAME COMP 2 "ANGLED_WEB_T1"
$HMCOMP ID 2
CQUAD4,49,2,64,65,72,71
CQUAD4,50,2,65,66,73,72
CQUAD4,51,2,66,67,74,73
CQUAD4,52,2,67,68,75,74
CQUAD4,53,2,68,69,76,75
CQUAD4,54,2,69,70,77,76
CQUAD4,55,2,71,72,79,78
CQUAD4,56,2,72,73,80,79
CQUAD4,57,2,73,74,81,80
CQUAD4,58,2,74,75,82,81
CQUAD4,59,2,75,76,83,82
CQUAD4,60,2,76,77,84,83
PSHELL,1,1,2
PSHELL,2,1,1
MAT1,1,210000,,0.3
ENDDATA
