$ HMWF_OFFLINE_AUTO_SEAM_MODEL
BEGIN BULK
GRID,26000,,0,-100,0
GRID,26001,,20,-100,0
GRID,26002,,40,-100,0
GRID,26003,,60,-100,0
GRID,26004,,80,-100,0
GRID,26005,,100,-100,0
GRID,26006,,120,-100,0
GRID,26007,,140,-100,0
GRID,26008,,160,-100,0
GRID,26009,,180,-100,0
GRID,26010,,200,-100,0
GRID,26011,,220,-100,0
GRID,26012,,240,-100,0
GRID,26013,,260,-100,0
GRID,26014,,280,-100,0
GRID,26015,,300,-100,0
GRID,26016,,320,-100,0
GRID,26017,,340,-100,0
GRID,26018,,360,-100,0
GRID,26019,,380,-100,0
$ ... 273 like lines cut
$ CASE TC026_SAME
$ ===============
$HMNAME COMP 46000 "TC026_SAME"
$HMCOMP ID 46000
CQUAD4,36000,56000,26000,26001,26022,26021
CQUAD4,36001,56000,26001,26002,26023,26022
CQUAD4,36002,56000,26002,26003,26024,26023
CQUAD4,36003,56000,26003,26004,26025,26024
CQUAD4,36004,56000,26004,26005,26026,26025
CQUAD4,36005,56000,26005,26006,26027,26026
CQUAD4,36006,56000,26006,26007,26028,26027
CQUAD4,36007,56000,26007,26008,26029,26028
CQUAD4,36008,56000,26008,26009,26030,26029
CQUAD4,36009,56000,26009,26010,26031,26030
CQUAD4,36010,56000,26010,26011,26032,26031
CQUAD4,36011,56000,26011,26012,26033,26032
CQUAD4,36012,56000,26012,26013,26034,26033
CQUAD4,36013,56000,26013,26014,26035,26034
CQUAD4,36014,56000,26014,26015,26036,26035
CQUAD4,36015,56000,26015,26016,26037,26036
CQUAD4,36016,56000,26016,26017,26038,26037
CQUAD4,36017,56000,26017,26018,26039,26038
CQUAD4,36018,56000,26018,26019,26040,26039
CQUAD4,36019,56000,26019,26020,26041,26040
$ ... 210 like lines cut
PSHELL,56000,1,10
MAT1,1,210000,,0.3
ENDDATA
