$ HMWF_OFFLINE_AUTO_SEAM_MODEL
BEGIN BULK
GRID,38000,,-200,-150,0
GRID,38001,,-160,-150,0
GRID,38002,,-120,-150,0
GRID,38003,,-80,-150,0
GRID,38004,,-40,-150,0
GRID,38005,,0,-150,0
GRID,38006,,40,-150,0
GRID,38007,,80,-150,0
GRID,38008,,120,-150,0
GRID,38009,,160,-150,0
GRID,38010,,200,-150,0
GRID,38011,,-200,-112.5,0
GRID,38012,,-160,-112.5,0
GRID,38013,,-120,-112.5,0
GRID,38014,,-80,-112.5,0
GRID,38015,,-40,-112.5,0
GRID,38016,,0,-112.5,0
GRID,38017,,40,-112.5,0
GRID,38018,,80,-112.5,0
GRID,38019,,120,-112.5,0
$ ... 286 like lines cut
$ CASE TC038_BASE
$ ===============
$HMNAME COMP 58000 "TC038_BASE"
$HMCOMP ID 58000
CQUAD4,48000,68000,38000,38001,38012,38011
CQUAD4,48001,68000,38001,38002,38013,38012
CQUAD4,48002,68000,38002,38003,38014,38013
CQUAD4,48003,68000,38003,38004,38015,38014
CQUAD4,48004,68000,38004,38005,38016,38015
CQUAD4,48005,68000,38005,38006,38017,38016
CQUAD4,48006,68000,38006,38007,38018,38017
CQUAD4,48007,68000,38007,38008,38019,38018
CQUAD4,48008,68000,38008,38009,38020,38019
CQUAD4,48009,68000,38009,38010,38021,38020
CQUAD4,48010,68000,38011,38012,38023,38022
CQUAD4,48011,68000,38012,38013,38024,38023
CQUAD4,48012,68000,38013,38014,38025,38024
CQUAD4,48013,68000,38014,38015,38026,38025
CQUAD4,48014,68000,38015,38016,38027,38026
CQUAD4,48015,68000,38016,38017,38028,38027
CQUAD4,48016,68000,38017,38018,38029,38028
CQUAD4,48017,68000,38018,38019,38030,38029
CQUAD4,48018,68000,38019,38020,38031,38030
CQUAD4,48019,68000,38020,38021,38032,38031
$ ... 60 like lines cut
$ CASE TC038_PATCH
$ ================
$HMNAME COMP 58001 "TC038_PATCH"
$HMCOMP ID 58001
CQUAD4,48080,68001,38099,38100,38123,38122
CQUAD4,48081,68001,38100,38101,38124,38123
CQUAD4,48082,68001,38101,38102,38125,38124
CQUAD4,48083,68001,38102,38103,38126,38125
CQUAD4,48084,68001,38103,38104,38127,38126
CQUAD4,48085,68001,38104,38105,38128,38127
CQUAD4,48086,68001,38105,38106,38129,38128
CQUAD4,48087,68001,38106,38107,38130,38129
CQUAD4,48088,68001,38107,38108,38131,38130
CQUAD4,48089,68001,38108,38109,38132,38131
CQUAD4,48090,68001,38109,38110,38133,38132
CQUAD4,48091,68001,38110,38111,38134,38133
CQUAD4,48092,68001,38111,38112,38135,38134
CQUAD4,48093,68001,38112,38113,38136,38135
CQUAD4,48094,68001,38113,38114,38137,38136
CQUAD4,48095,68001,38114,38115,38138,38137
CQUAD4,48096,68001,38115,38116,38139,38138
CQUAD4,48097,68001,38116,38117,38140,38139
CQUAD4,48098,68001,38117,38118,38141,38140
CQUAD4,48099,68001,38118,38119,38142,38141
$ ... 156 like lines cut
PSHELL,68000,1,10
PSHELL,68001,1,6
MAT1,1,210000,,0.3
ENDDATA
