$ HMWF_OFFLINE_AUTO_SEAM_MODEL
BEGIN BULK
GRID,3000,,0,-100,0
GRID,3001,,20,-100,0
GRID,3002,,40,-100,0
GRID,3003,,60,-100,0
GRID,3004,,80,-100,0
GRID,3005,,100,-100,0
GRID,3006,,120,-100,0
GRID,3007,,140,-100,0
GRID,3008,,160,-100,0
GRID,3009,,180,-100,0
GRID,3010,,200,-100,0
GRID,3011,,220,-100,0
GRID,3012,,240,-100,0
GRID,3013,,260,-100,0
GRID,3014,,280,-100,0
GRID,3015,,300,-100,0
GRID,3016,,320,-100,0
GRID,3017,,340,-100,0
GRID,3018,,360,-100,0
GRID,3019,,380,-100,0
$ ... 552 like lines cut
$ CASE TC003_TGT_BASE
$ ===================
$HMNAME COMP 23000 "TC003_TGT_BASE"
$HMCOMP ID 23000
CQUAD4,13000,33000,3000,3001,3022,3021,,2,
CQUAD4,13001,33000,3001,3002,3023,3022,,2,
CQUAD4,13002,33000,3002,3003,3024,3023,,2,
CQUAD4,13003,33000,3003,3004,3025,3024,,2,
CQUAD4,13004,33000,3004,3005,3026,3025,,2,
CQUAD4,13005,33000,3005,3006,3027,3026,,2,
CQUAD4,13006,33000,3006,3007,3028,3027,,2,
CQUAD4,13007,33000,3007,3008,3029,3028,,2,
CQUAD4,13008,33000,3008,3009,3030,3029,,2,
CQUAD4,13009,33000,3009,3010,3031,3030,,2,
CQUAD4,13010,33000,3010,3011,3032,3031,,2,
CQUAD4,13011,33000,3011,3012,3033,3032,,2,
CQUAD4,13012,33000,3012,3013,3034,3033,,2,
CQUAD4,13013,33000,3013,3014,3035,3034,,2,
CQUAD4,13014,33000,3014,3015,3036,3035,,2,
CQUAD4,13015,33000,3015,3016,3037,3036,,2,
CQUAD4,13016,33000,3016,3017,3038,3037,,2,
CQUAD4,13017,33000,3017,3018,3039,3038,,2,
CQUAD4,13018,33000,3018,3019,3040,3039,,2,
CQUAD4,13019,33000,3019,3020,3041,3040,,2,
$ ... 180 like lines cut
$ CASE TC003_SRC_WEB
$ ==================
$HMNAME COMP 23001 "TC003_SRC_WEB"
$HMCOMP ID 23001
CQUAD4,13200,33001,3231,3232,3263,3262
CQUAD4,13201,33001,3232,3233,3264,3263
CQUAD4,13202,33001,3233,3234,3265,3264
CQUAD4,13203,33001,3234,3235,3266,3265
CQUAD4,13204,33001,3235,3236,3267,3266
CQUAD4,13205,33001,3236,3237,3268,3267
CQUAD4,13206,33001,3237,3238,3269,3268
CQUAD4,13207,33001,3238,3239,3270,3269
CQUAD4,13208,33001,3239,3240,3271,3270
CQUAD4,13209,33001,3240,3241,3272,3271
CQUAD4,13210,33001,3241,3242,3273,3272
CQUAD4,13211,33001,3242,3243,3274,3273
CQUAD4,13212,33001,3243,3244,3275,3274
CQUAD4,13213,33001,3244,3245,3276,3275
CQUAD4,13214,33001,3245,3246,3277,3276
CQUAD4,13215,33001,3246,3247,3278,3277
CQUAD4,13216,33001,3247,3248,3279,3278
CQUAD4,13217,33001,3248,3249,3280,3279
CQUAD4,13218,33001,3249,3250,3281,3280
CQUAD4,13219,33001,3250,3251,3282,3281
$ ... 280 like lines cut
PSHELL,33000,1,10
PSHELL,33001,1,6
MAT1,1,210000,,0.3
ENDDATA
