$ HMWF_OFFLINE_AUTO_SEAM_MODEL
BEGIN BULK
GRID,28000,,0,-100,0
GRID,28001,,20,-100,0
GRID,28002,,40,-100,0
GRID,28003,,60,-100,0
GRID,28004,,80,-100,0
GRID,28005,,100,-100,0
GRID,28006,,120,-100,0
GRID,28007,,140,-100,0
GRID,28008,,160,-100,0
GRID,28009,,180,-100,0
GRID,28010,,200,-100,0
GRID,28011,,220,-100,0
GRID,28012,,240,-100,0
GRID,28013,,260,-100,0
GRID,28014,,280,-100,0
GRID,28015,,300,-100,0
GRID,28016,,320,-100,0
GRID,28017,,340,-100,0
GRID,28018,,360,-100,0
GRID,28019,,380,-100,0
$ ... 275 like lines cut
$ CASE TC028_TGT_BASE
$ ===================
$HMNAME COMP 48000 "TC028_TGT_BASE"
$HMCOMP ID 48000
CQUAD4,38000,58000,28000,28001,28022,28021
CQUAD4,38001,58000,28001,28002,28023,28022
CQUAD4,38002,58000,28002,28003,28024,28023
CQUAD4,38003,58000,28003,28004,28025,28024
CQUAD4,38004,58000,28004,28005,28026,28025
CQUAD4,38005,58000,28005,28006,28027,28026
CQUAD4,38006,58000,28006,28007,28028,28027
CQUAD4,38007,58000,28007,28008,28029,28028
CQUAD4,38008,58000,28008,28009,28030,28029
CQUAD4,38009,58000,28009,28010,28031,28030
CQUAD4,38010,58000,28010,28011,28032,28031
CQUAD4,38011,58000,28011,28012,28033,28032
CQUAD4,38012,58000,28012,28013,28034,28033
CQUAD4,38013,58000,28013,28014,28035,28034
CQUAD4,38014,58000,28014,28015,28036,28035
CQUAD4,38015,58000,28015,28016,28037,28036
CQUAD4,38016,58000,28016,28017,28038,28037
CQUAD4,38017,58000,28017,28018,28039,28038
CQUAD4,38018,58000,28018,28019,28040,28039
CQUAD4,38019,58000,28019,28020,28041,28040
$ ... 180 like lines cut
$ CASE TC028_SRC_BRANCH
$ =====================
$HMNAME COMP 48001 "TC028_SRC_BRANCH"
$HMCOMP ID 48001
CQUAD4,38200,58001,28231,28232,28263,28262
CQUAD4,38201,58001,28232,28233,28264,28263
CQUAD4,38202,58001,28233,28234,28265,28264
CQUAD4,38203,58001,28234,28235,28266,28265
CQUAD4,38204,58001,28235,28236,28267,28266
CQUAD4,38205,58001,28236,28237,28268,28267
CQUAD4,38206,58001,28237,28238,28269,28268
CQUAD4,38207,58001,28238,28239,28270,28269
CQUAD4,38208,58001,28239,28240,28271,28270
CQUAD4,38209,58001,28240,28241,28272,28271
CQUAD4,38210,58001,28241,28242,28273,28272
CQUAD4,38211,58001,28242,28243,28274,28273
CQUAD4,38212,58001,28243,28244,28275,28274
CQUAD4,38213,58001,28244,28245,28276,28275
CQUAD4,38214,58001,28245,28246,28277,28276
CQUAD4,38215,58001,28246,28247,28278,28277
CQUAD4,38216,58001,28247,28248,28279,28278
CQUAD4,38217,58001,28248,28249,28280,28279
CQUAD4,38218,58001,28249,28250,28281,28280
CQUAD4,38219,58001,28250,28251,28282,28281
$ ... 12 like lines cut
PSHELL,58000,1,10
PSHELL,58001,1,6
MAT1,1,210000,,0.3
ENDDATA
