$ HMWF_OFFLINE_AUTO_SEAM_MODEL
BEGIN BULK
GRID,1,,0,0,0
GRID,2,,10,0,0
GRID,3,,20,0,0
GRID,4,,30,0,0
GRID,5,,40,0,0
GRID,6,,0,10,0
GRID,7,,10,10,0
GRID,8,,20,10,0
GRID,9,,30,10,0
GRID,10,,40,10,0
GRID,11,,0,20,0
GRID,12,,10,20,0
GRID,13,,20,20,0
GRID,14,,30,20,0
GRID,15,,40,20,0
GRID,16,,0,30,0
GRID,17,,10,30,0
GRID,18,,20,30,0
GRID,19,,30,30,0
GRID,20,,40,30,0
$ ... 20 like lines cut
$HMNAME COMP 1 "EDGE_PLATE_A_T1"
$HMCOMP ID 1
CQUAD4,1,1,1,2,7,6
CQUAD4,2,1,2,3,8,7
CQUAD4,3,1,3,4,9,8
CQUAD4,4,1,4,5,10,9
CQUAD4,5,1,6,7,12,11
CQUAD4,6,1,7,8,13,12
CQUAD4,7,1,8,9,14,13
CQUAD4,8,1,9,10,15,14
CQUAD4,9,1,11,12,17,16
CQUAD4,10,1,12,13,18,17
CQUAD4,11,1,13,14,19,18
CQUAD4,12,1,14,15,20,19
$HMNAME COMP 2 "EDGE_PLATE_B_T1"
$HMCOMP ID 2
CQUAD4,13,2,21,22,27,26
CQUAD4,14,2,22,23,28,27
CQUAD4,15,2,23,24,29,28
CQUAD4,16,2,24,25,30,29
CQUAD4,17,2,26,27,32,31
CQUAD4,18,2,27,28,33,32
CQUAD4,19,2,28,29,34,33
CQUAD4,20,2,29,30,35,34
CQUAD4,21,2,31,32,37,36
CQUAD4,22,2,32,33,38,37
CQUAD4,23,2,33,34,39,38
CQUAD4,24,2,34,35,40,39
PSHELL,1,1,1
PSHELL,2,1,1
MAT1,1,210000,,0.3
ENDDATA
