$ HMWF_OFFLINE_AUTO_SEAM_MODEL
BEGIN BULK
GRID,1,,-10,-20,0
GRID,2,,0,-20,0
GRID,3,,10,-20,0
GRID,4,,20,-20,0
GRID,5,,30,-20,0
GRID,6,,40,-20,0
GRID,7,,50,-20,0
GRID,8,,60,-20,0
GRID,9,,70,-20,0
GRID,10,,-10,-10,0
GRID,11,,0,-10,0
GRID,12,,10,-10,0
GRID,13,,20,-10,0
GRID,14,,30,-10,0
GRID,15,,40,-10,0
GRID,16,,50,-10,0
GRID,17,,60,-10,0
GRID,18,,70,-10,0
GRID,19,,-10,0,0
GRID,20,,0,0,0
$ ... 91 like lines cut
$HMNAME COMP 1 "UPPER_TARGET_T2"
$HMCOMP ID 1
CQUAD4,1,1,1,2,11,10
CQUAD4,2,1,2,3,12,11
CQUAD4,3,1,3,4,13,12
CQUAD4,4,1,4,5,14,13
CQUAD4,5,1,5,6,15,14
CQUAD4,6,1,6,7,16,15
CQUAD4,7,1,7,8,17,16
CQUAD4,8,1,8,9,18,17
CQUAD4,9,1,10,11,20,19
CQUAD4,10,1,11,12,21,20
CQUAD4,11,1,12,13,22,21
CQUAD4,12,1,13,14,23,22
CQUAD4,13,1,14,15,24,23
CQUAD4,14,1,15,16,25,24
CQUAD4,15,1,16,17,26,25
CQUAD4,16,1,17,18,27,26
CQUAD4,17,1,19,20,29,28
CQUAD4,18,1,20,21,30,29
CQUAD4,19,1,21,22,31,30
CQUAD4,20,1,22,23,32,31
$ ... 12 like lines cut
$HMNAME COMP 2 "LOWER_TARGET_T2"
$HMCOMP ID 2
CQUAD4,33,2,46,47,56,55
CQUAD4,34,2,47,48,57,56
CQUAD4,35,2,48,49,58,57
CQUAD4,36,2,49,50,59,58
CQUAD4,37,2,50,51,60,59
CQUAD4,38,2,51,52,61,60
CQUAD4,39,2,52,53,62,61
CQUAD4,40,2,53,54,63,62
CQUAD4,41,2,55,56,65,64
CQUAD4,42,2,56,57,66,65
CQUAD4,43,2,57,58,67,66
CQUAD4,44,2,58,59,68,67
CQUAD4,45,2,59,60,69,68
CQUAD4,46,2,60,61,70,69
CQUAD4,47,2,61,62,71,70
CQUAD4,48,2,62,63,72,71
CQUAD4,49,2,64,65,74,73
CQUAD4,50,2,65,66,75,74
CQUAD4,51,2,66,67,76,75
CQUAD4,52,2,67,68,77,76
$ ... 12 like lines cut
$HMNAME COMP 3 "SHARED_SOURCE_WEB_T1"
$HMCOMP ID 3
CQUAD4,65,3,91,92,99,98
CQUAD4,66,3,92,93,100,99
CQUAD4,67,3,93,94,101,100
CQUAD4,68,3,94,95,102,101
CQUAD4,69,3,95,96,103,102
CQUAD4,70,3,96,97,104,103
CQUAD4,71,3,98,99,106,105
CQUAD4,72,3,99,100,107,106
CQUAD4,73,3,100,101,108,107
CQUAD4,74,3,101,102,109,108
CQUAD4,75,3,102,103,110,109
CQUAD4,76,3,103,104,111,110
PSHELL,1,1,2
PSHELL,2,1,2
PSHELL,3,1,1
MAT1,1,210000,,0.3
ENDDATA
