$ HMWF_OFFLINE_AUTO_SEAM_MODEL
BEGIN BULK
GRID,30000,,0,-100,0
GRID,30001,,19,-100,0
GRID,30002,,38,-100,0
GRID,30003,,57,-100,0
GRID,30004,,76,-100,0
GRID,30005,,95,-100,0
GRID,30006,,114,-100,0
GRID,30007,,133,-100,0
GRID,30008,,152,-100,0
GRID,30009,,171,-100,0
GRID,30010,,190,-100,0
GRID,30011,,0,-80,0
GRID,30012,,19,-80,0
GRID,30013,,38,-80,0
GRID,30014,,57,-80,0
GRID,30015,,76,-80,0
GRID,30016,,95,-80,0
GRID,30017,,114,-80,0
GRID,30018,,133,-80,0
GRID,30019,,152,-80,0
$ ... 284 like lines cut
$ CASE TC030_B
$ ============
$HMNAME COMP 50000 "TC030_B"
$HMCOMP ID 50000
CQUAD4,40000,60000,30000,30001,30012,30011
CQUAD4,40001,60000,30001,30002,30013,30012
CQUAD4,40002,60000,30002,30003,30014,30013
CQUAD4,40003,60000,30003,30004,30015,30014
CQUAD4,40004,60000,30004,30005,30016,30015
CQUAD4,40005,60000,30005,30006,30017,30016
CQUAD4,40006,60000,30006,30007,30018,30017
CQUAD4,40007,60000,30007,30008,30019,30018
CQUAD4,40008,60000,30008,30009,30020,30019
CQUAD4,40009,60000,30009,30010,30021,30020
CQUAD4,40010,60000,30011,30012,30023,30022
CQUAD4,40011,60000,30012,30013,30024,30023
CQUAD4,40012,60000,30013,30014,30025,30024
CQUAD4,40013,60000,30014,30015,30026,30025
CQUAD4,40014,60000,30015,30016,30027,30026
CQUAD4,40015,60000,30016,30017,30028,30027
CQUAD4,40016,60000,30017,30018,30029,30028
CQUAD4,40017,60000,30018,30019,30030,30029
CQUAD4,40018,60000,30019,30020,30031,30030
CQUAD4,40019,60000,30020,30021,30032,30031
$ ... 80 like lines cut
$ CASE TC030_C
$ ============
$HMNAME COMP 50001 "TC030_C"
$HMCOMP ID 50001
CQUAD4,40100,60001,30121,30122,30133,30132
CQUAD4,40101,60001,30122,30123,30134,30133
CQUAD4,40102,60001,30123,30124,30135,30134
CQUAD4,40103,60001,30124,30125,30136,30135
CQUAD4,40104,60001,30125,30126,30137,30136
CQUAD4,40105,60001,30126,30127,30138,30137
CQUAD4,40106,60001,30127,30128,30139,30138
CQUAD4,40107,60001,30128,30129,30140,30139
CQUAD4,40108,60001,30129,30130,30141,30140
CQUAD4,40109,60001,30130,30131,30142,30141
CQUAD4,40110,60001,30132,30133,30144,30143
CQUAD4,40111,60001,30133,30134,30145,30144
CQUAD4,40112,60001,30134,30135,30146,30145
CQUAD4,40113,60001,30135,30136,30147,30146
CQUAD4,40114,60001,30136,30137,30148,30147
CQUAD4,40115,60001,30137,30138,30149,30148
CQUAD4,40116,60001,30138,30139,30150,30149
CQUAD4,40117,60001,30139,30140,30151,30150
CQUAD4,40118,60001,30140,30141,30152,30151
CQUAD4,40119,60001,30141,30142,30153,30152
$ ... 80 like lines cut
$ CASE TC030_SRC_WEB
$ ==================
$HMNAME COMP 50002 "TC030_SRC_WEB"
$HMCOMP ID 50002
CQUAD4,40200,60002,30242,30244,30245,30243
CQUAD4,40201,60002,30244,30246,30247,30245
CQUAD4,40202,60002,30246,30248,30249,30247
CQUAD4,40203,60002,30248,30250,30251,30249
CQUAD4,40204,60002,30250,30252,30253,30251
CQUAD4,40205,60002,30252,30254,30255,30253
CQUAD4,40206,60002,30254,30256,30257,30255
CQUAD4,40207,60002,30256,30258,30259,30257
CQUAD4,40208,60002,30258,30260,30261,30259
CQUAD4,40209,60002,30260,30262,30263,30261
CQUAD4,40210,60002,30262,30264,30265,30263
CQUAD4,40211,60002,30264,30266,30267,30265
CQUAD4,40212,60002,30266,30268,30269,30267
CQUAD4,40213,60002,30268,30270,30271,30269
CQUAD4,40214,60002,30270,30272,30273,30271
CQUAD4,40215,60002,30272,30274,30275,30273
CQUAD4,40216,60002,30274,30276,30277,30275
CQUAD4,40217,60002,30276,30278,30279,30277
CQUAD4,40218,60002,30278,30280,30281,30279
CQUAD4,40219,60002,30280,30282,30283,30281
$ ... 10 like lines cut
PSHELL,60000,1,10
PSHELL,60001,1,10
PSHELL,60002,1,6
MAT1,1,210000,,0.3
ENDDATA
