$ HMWF_OFFLINE_AUTO_SEAM_MODEL
BEGIN BULK
GRID,32000,,-100,-100,0
GRID,32001,,-80,-100,0
GRID,32002,,-60,-100,0
GRID,32003,,-40,-100,0
GRID,32004,,-20,-100,0
GRID,32005,,0,-100,0
GRID,32006,,20,-100,0
GRID,32007,,40,-100,0
GRID,32008,,60,-100,0
GRID,32009,,80,-100,0
GRID,32010,,100,-100,0
GRID,32011,,120,-100,0
GRID,32012,,140,-100,0
GRID,32013,,160,-100,0
GRID,32014,,180,-100,0
GRID,32015,,200,-100,0
GRID,32016,,220,-100,0
GRID,32017,,240,-100,0
GRID,32018,,260,-100,0
GRID,32019,,280,-100,0
$ ... 339 like lines cut
$ CASE TC032_TGT_PLANE
$ ====================
$HMNAME COMP 52000 "TC032_TGT_PLANE"
$HMCOMP ID 52000
CQUAD4,42000,62000,32000,32001,32028,32027
CQUAD4,42001,62000,32001,32002,32029,32028
CQUAD4,42002,62000,32002,32003,32030,32029
CQUAD4,42003,62000,32003,32004,32031,32030
CQUAD4,42004,62000,32004,32005,32032,32031
CQUAD4,42005,62000,32005,32006,32033,32032
CQUAD4,42006,62000,32006,32007,32034,32033
CQUAD4,42007,62000,32007,32008,32035,32034
CQUAD4,42008,62000,32008,32009,32036,32035
CQUAD4,42009,62000,32009,32010,32037,32036
CQUAD4,42010,62000,32010,32011,32038,32037
CQUAD4,42011,62000,32011,32012,32039,32038
CQUAD4,42012,62000,32012,32013,32040,32039
CQUAD4,42013,62000,32013,32014,32041,32040
CQUAD4,42014,62000,32014,32015,32042,32041
CQUAD4,42015,62000,32015,32016,32043,32042
CQUAD4,42016,62000,32016,32017,32044,32043
CQUAD4,42017,62000,32017,32018,32045,32044
CQUAD4,42018,62000,32018,32019,32046,32045
CQUAD4,42019,62000,32019,32020,32047,32046
$ ... 240 like lines cut
$ CASE TC032_SRC_WEB
$ ==================
$HMNAME COMP 52001 "TC032_SRC_WEB"
$HMCOMP ID 52001
CQUAD4,42260,62001,32297,32298,32329,32328
CQUAD4,42261,62001,32298,32299,32330,32329
CQUAD4,42262,62001,32299,32300,32331,32330
CQUAD4,42263,62001,32300,32301,32332,32331
CQUAD4,42264,62001,32301,32302,32333,32332
CQUAD4,42265,62001,32302,32303,32334,32333
CQUAD4,42266,62001,32303,32304,32335,32334
CQUAD4,42267,62001,32304,32305,32336,32335
CQUAD4,42268,62001,32305,32306,32337,32336
CQUAD4,42269,62001,32306,32307,32338,32337
CQUAD4,42270,62001,32307,32308,32339,32338
CQUAD4,42271,62001,32308,32309,32340,32339
CQUAD4,42272,62001,32309,32310,32341,32340
CQUAD4,42273,62001,32310,32311,32342,32341
CQUAD4,42274,62001,32311,32312,32343,32342
CQUAD4,42275,62001,32312,32313,32344,32343
CQUAD4,42276,62001,32313,32314,32345,32344
CQUAD4,42277,62001,32314,32315,32346,32345
CQUAD4,42278,62001,32315,32316,32347,32346
CQUAD4,42279,62001,32316,32317,32348,32347
$ ... 10 like lines cut
PSHELL,62000,1,10
PSHELL,62001,1,6
MAT1,1,210000,,0.3
ENDDATA
