$ HMWF_OFFLINE_AUTO_SEAM_MODEL
BEGIN BULK
GRID,1,,-10,-20,0
GRID,2,,0,-20,0
GRID,3,,10,-20,0
GRID,4,,20,-20,0
GRID,5,,30,-20,0
GRID,6,,40,-20,0
GRID,7,,50,-20,0
GRID,8,,60,-20,0
GRID,9,,70,-20,0
GRID,10,,-10,-10,0
GRID,11,,0,-10,0
GRID,12,,10,-10,0
GRID,13,,20,-10,0
GRID,14,,30,-10,0
GRID,15,,40,-10,0
GRID,16,,50,-10,0
GRID,17,,60,-10,0
GRID,18,,70,-10,0
GRID,19,,-10,0,0
GRID,20,,0,0,0
$ ... 743 like lines cut
$HMNAME COMP 1 "F01_CASE_01_STRAIGHT_T__BASE_T2"
$HMCOMP ID 1
CQUAD4,1,1,1,2,11,10
CQUAD4,2,1,2,3,12,11
CQUAD4,3,1,3,4,13,12
CQUAD4,4,1,4,5,14,13
CQUAD4,5,1,5,6,15,14
CQUAD4,6,1,6,7,16,15
CQUAD4,7,1,7,8,17,16
CQUAD4,8,1,8,9,18,17
CQUAD4,9,1,10,11,20,19
CQUAD4,10,1,11,12,21,20
CQUAD4,11,1,12,13,22,21
CQUAD4,12,1,13,14,23,22
CQUAD4,13,1,14,15,24,23
CQUAD4,14,1,15,16,25,24
CQUAD4,15,1,16,17,26,25
CQUAD4,16,1,17,18,27,26
CQUAD4,17,1,19,20,29,28
CQUAD4,18,1,20,21,30,29
CQUAD4,19,1,21,22,31,30
CQUAD4,20,1,22,23,32,31
$ ... 12 like lines cut
$HMNAME COMP 2 "F01_CASE_01_STRAIGHT_T__WEB_T1"
$HMCOMP ID 2
CQUAD4,33,2,46,47,54,53
CQUAD4,34,2,47,48,55,54
CQUAD4,35,2,48,49,56,55
CQUAD4,36,2,49,50,57,56
CQUAD4,37,2,50,51,58,57
CQUAD4,38,2,51,52,59,58
CQUAD4,39,2,53,54,61,60
CQUAD4,40,2,54,55,62,61
CQUAD4,41,2,55,56,63,62
CQUAD4,42,2,56,57,64,63
CQUAD4,43,2,57,58,65,64
CQUAD4,44,2,58,59,66,65
$HMNAME COMP 3 "F02_CASE_02_ANGLED_T__BASE_T2"
$HMCOMP ID 3
CQUAD4,45,3,67,68,77,76
CQUAD4,46,3,68,69,78,77
CQUAD4,47,3,69,70,79,78
CQUAD4,48,3,70,71,80,79
CQUAD4,49,3,71,72,81,80
CQUAD4,50,3,72,73,82,81
CQUAD4,51,3,73,74,83,82
CQUAD4,52,3,74,75,84,83
CQUAD4,53,3,76,77,86,85
CQUAD4,54,3,77,78,87,86
CQUAD4,55,3,78,79,88,87
CQUAD4,56,3,79,80,89,88
CQUAD4,57,3,80,81,90,89
CQUAD4,58,3,81,82,91,90
CQUAD4,59,3,82,83,92,91
CQUAD4,60,3,83,84,93,92
CQUAD4,61,3,85,86,95,94
CQUAD4,62,3,86,87,96,95
CQUAD4,63,3,87,88,97,96
CQUAD4,64,3,88,89,98,97
$ ... 28 like lines cut
$HMNAME COMP 4 "F02_CASE_02_ANGLED_T__ANGLED_WEB_T1"
$HMCOMP ID 4
CQUAD4,93,4,130,131,138,137
CQUAD4,94,4,131,132,139,138
CQUAD4,95,4,132,133,140,139
CQUAD4,96,4,133,134,141,140
CQUAD4,97,4,134,135,142,141
CQUAD4,98,4,135,136,143,142
CQUAD4,99,4,137,138,145,144
CQUAD4,100,4,138,139,146,145
CQUAD4,101,4,139,140,147,146
CQUAD4,102,4,140,141,148,147
CQUAD4,103,4,141,142,149,148
CQUAD4,104,4,142,143,150,149
$HMNAME COMP 5 "F03_CASE_03_CURVED_T__BASE_T2"
$HMCOMP ID 5
CQUAD4,105,5,151,152,163,162
CQUAD4,106,5,152,153,164,163
CQUAD4,107,5,153,154,165,164
CQUAD4,108,5,154,155,166,165
CQUAD4,109,5,155,156,167,166
CQUAD4,110,5,156,157,168,167
CQUAD4,111,5,157,158,169,168
CQUAD4,112,5,158,159,170,169
CQUAD4,113,5,159,160,171,170
CQUAD4,114,5,160,161,172,171
CQUAD4,115,5,162,163,174,173
CQUAD4,116,5,163,164,175,174
CQUAD4,117,5,164,165,176,175
CQUAD4,118,5,165,166,177,176
CQUAD4,119,5,166,167,178,177
CQUAD4,120,5,167,168,179,178
CQUAD4,121,5,168,169,180,179
CQUAD4,122,5,169,170,181,180
CQUAD4,123,5,170,171,182,181
CQUAD4,124,5,171,172,183,182
$ ... 50 like lines cut
$HMNAME COMP 6 "F03_CASE_03_CURVED_T__CURVED_WEB_T1"
$HMCOMP ID 6
CQUAD4,175,6,239,240,249,248
CQUAD4,176,6,240,241,250,249
CQUAD4,177,6,241,242,251,250
CQUAD4,178,6,242,243,252,251
CQUAD4,179,6,243,244,253,252
CQUAD4,180,6,244,245,254,253
CQUAD4,181,6,245,246,255,254
CQUAD4,182,6,246,247,256,255
CQUAD4,183,6,248,249,258,257
CQUAD4,184,6,249,250,259,258
CQUAD4,185,6,250,251,260,259
CQUAD4,186,6,251,252,261,260
CQUAD4,187,6,252,253,262,261
CQUAD4,188,6,253,254,263,262
CQUAD4,189,6,254,255,264,263
CQUAD4,190,6,255,256,265,264
$HMNAME COMP 7 "F04_CASE_04_PARTIAL_OVERLAP_T__PARTIAL_BASE_T2"
$HMCOMP ID 7
CQUAD4,191,7,266,267,272,271
CQUAD4,192,7,267,268,273,272
CQUAD4,193,7,268,269,274,273
CQUAD4,194,7,269,270,275,274
CQUAD4,195,7,271,272,277,276
CQUAD4,196,7,272,273,278,277
CQUAD4,197,7,273,274,279,278
CQUAD4,198,7,274,275,280,279
CQUAD4,199,7,276,277,282,281
CQUAD4,200,7,277,278,283,282
CQUAD4,201,7,278,279,284,283
CQUAD4,202,7,279,280,285,284
CQUAD4,203,7,281,282,287,286
CQUAD4,204,7,282,283,288,287
CQUAD4,205,7,283,284,289,288
CQUAD4,206,7,284,285,290,289
$HMNAME COMP 8 "F04_CASE_04_PARTIAL_OVERLAP_T__LONG_WEB_T1"
$HMCOMP ID 8
CQUAD4,207,8,291,292,301,300
CQUAD4,208,8,292,293,302,301
CQUAD4,209,8,293,294,303,302
CQUAD4,210,8,294,295,304,303
CQUAD4,211,8,295,296,305,304
CQUAD4,212,8,296,297,306,305
CQUAD4,213,8,297,298,307,306
CQUAD4,214,8,298,299,308,307
CQUAD4,215,8,300,301,310,309
CQUAD4,216,8,301,302,311,310
CQUAD4,217,8,302,303,312,311
CQUAD4,218,8,303,304,313,312
CQUAD4,219,8,304,305,314,313
CQUAD4,220,8,305,306,315,314
CQUAD4,221,8,306,307,316,315
CQUAD4,222,8,307,308,317,316
$HMNAME COMP 9 "F05_CASE_05_MULTI_TARGET_SAME_EDGE__UPPER_TARGET_T2"
$HMCOMP ID 9
CQUAD4,223,9,318,319,328,327
CQUAD4,224,9,319,320,329,328
CQUAD4,225,9,320,321,330,329
CQUAD4,226,9,321,322,331,330
CQUAD4,227,9,322,323,332,331
CQUAD4,228,9,323,324,333,332
CQUAD4,229,9,324,325,334,333
CQUAD4,230,9,325,326,335,334
CQUAD4,231,9,327,328,337,336
CQUAD4,232,9,328,329,338,337
CQUAD4,233,9,329,330,339,338
CQUAD4,234,9,330,331,340,339
CQUAD4,235,9,331,332,341,340
CQUAD4,236,9,332,333,342,341
CQUAD4,237,9,333,334,343,342
CQUAD4,238,9,334,335,344,343
CQUAD4,239,9,336,337,346,345
CQUAD4,240,9,337,338,347,346
CQUAD4,241,9,338,339,348,347
CQUAD4,242,9,339,340,349,348
$ ... 12 like lines cut
$HMNAME COMP 10 "F05_CASE_05_MULTI_TARGET_SAME_EDGE__LOWER_TARGET_T2"
$HMCOMP ID 10
CQUAD4,255,10,363,364,373,372
CQUAD4,256,10,364,365,374,373
CQUAD4,257,10,365,366,375,374
CQUAD4,258,10,366,367,376,375
CQUAD4,259,10,367,368,377,376
CQUAD4,260,10,368,369,378,377
CQUAD4,261,10,369,370,379,378
CQUAD4,262,10,370,371,380,379
CQUAD4,263,10,372,373,382,381
CQUAD4,264,10,373,374,383,382
CQUAD4,265,10,374,375,384,383
CQUAD4,266,10,375,376,385,384
CQUAD4,267,10,376,377,386,385
CQUAD4,268,10,377,378,387,386
CQUAD4,269,10,378,379,388,387
CQUAD4,270,10,379,380,389,388
CQUAD4,271,10,381,382,391,390
CQUAD4,272,10,382,383,392,391
CQUAD4,273,10,383,384,393,392
CQUAD4,274,10,384,385,394,393
$ ... 12 like lines cut
$HMNAME COMP 11 "F05_CASE_05_MULTI_TARGET_SAME_EDGE__SHARED_SOURCE_WEB_T1"
$HMCOMP ID 11
CQUAD4,287,11,408,409,416,415
CQUAD4,288,11,409,410,417,416
CQUAD4,289,11,410,411,418,417
CQUAD4,290,11,411,412,419,418
CQUAD4,291,11,412,413,420,419
CQUAD4,292,11,413,414,421,420
CQUAD4,293,11,415,416,423,422
CQUAD4,294,11,416,417,424,423
CQUAD4,295,11,417,418,425,424
CQUAD4,296,11,418,419,426,425
CQUAD4,297,11,419,420,427,426
CQUAD4,298,11,420,421,428,427
$HMNAME COMP 12 "F06_CASE_06_FOUR_TARGET_T__BASE1_T2"
$HMCOMP ID 12
CQUAD4,299,12,429,430,433,432
CQUAD4,300,12,430,431,434,433
CQUAD4,301,12,432,433,436,435
CQUAD4,302,12,433,434,437,436
CQUAD4,303,12,435,436,439,438
CQUAD4,304,12,436,437,440,439
CQUAD4,305,12,438,439,442,441
CQUAD4,306,12,439,440,443,442
$HMNAME COMP 13 "F06_CASE_06_FOUR_TARGET_T__BASE2_T2"
$HMCOMP ID 13
CQUAD4,307,13,444,445,448,447
CQUAD4,308,13,445,446,449,448
CQUAD4,309,13,447,448,451,450
CQUAD4,310,13,448,449,452,451
CQUAD4,311,13,450,451,454,453
CQUAD4,312,13,451,452,455,454
CQUAD4,313,13,453,454,457,456
CQUAD4,314,13,454,455,458,457
$HMNAME COMP 14 "F06_CASE_06_FOUR_TARGET_T__BASE3_T2"
$HMCOMP ID 14
CQUAD4,315,14,459,460,463,462
CQUAD4,316,14,460,461,464,463
CQUAD4,317,14,462,463,466,465
CQUAD4,318,14,463,464,467,466
CQUAD4,319,14,465,466,469,468
CQUAD4,320,14,466,467,470,469
CQUAD4,321,14,468,469,472,471
CQUAD4,322,14,469,470,473,472
$HMNAME COMP 15 "F06_CASE_06_FOUR_TARGET_T__BASE4_T2"
$HMCOMP ID 15
CQUAD4,323,15,474,475,478,477
CQUAD4,324,15,475,476,479,478
CQUAD4,325,15,477,478,481,480
CQUAD4,326,15,478,479,482,481
CQUAD4,327,15,480,481,484,483
CQUAD4,328,15,481,482,485,484
CQUAD4,329,15,483,484,487,486
CQUAD4,330,15,484,485,488,487
$HMNAME COMP 16 "F06_CASE_06_FOUR_TARGET_T__CENTER_WEB_T1"
$HMCOMP ID 16
CQUAD4,331,16,489,490,499,498
CQUAD4,332,16,490,491,500,499
CQUAD4,333,16,491,492,501,500
CQUAD4,334,16,492,493,502,501
CQUAD4,335,16,493,494,503,502
CQUAD4,336,16,494,495,504,503
CQUAD4,337,16,495,496,505,504
CQUAD4,338,16,496,497,506,505
CQUAD4,339,16,498,499,508,507
CQUAD4,340,16,499,500,509,508
CQUAD4,341,16,500,501,510,509
CQUAD4,342,16,501,502,511,510
CQUAD4,343,16,502,503,512,511
CQUAD4,344,16,503,504,513,512
CQUAD4,345,16,504,505,514,513
CQUAD4,346,16,505,506,515,514
$HMNAME COMP 17 "F07_CASE_07_PATCH__LARGE_PATCH_TARGET_T2"
$HMCOMP ID 17
CQUAD4,347,17,516,517,526,525
CQUAD4,348,17,517,518,527,526
CQUAD4,349,17,518,519,528,527
CQUAD4,350,17,519,520,529,528
CQUAD4,351,17,520,521,530,529
CQUAD4,352,17,521,522,531,530
CQUAD4,353,17,522,523,532,531
CQUAD4,354,17,523,524,533,532
CQUAD4,355,17,525,526,535,534
CQUAD4,356,17,526,527,536,535
CQUAD4,357,17,527,528,537,536
CQUAD4,358,17,528,529,538,537
CQUAD4,359,17,529,530,539,538
CQUAD4,360,17,530,531,540,539
CQUAD4,361,17,531,532,541,540
CQUAD4,362,17,532,533,542,541
CQUAD4,363,17,534,535,544,543
CQUAD4,364,17,535,536,545,544
CQUAD4,365,17,536,537,546,545
CQUAD4,366,17,537,538,547,546
$ ... 28 like lines cut
$HMNAME COMP 18 "F07_CASE_07_PATCH__SMALL_PATCH_T1"
$HMCOMP ID 18
CQUAD4,395,18,579,580,585,584
CQUAD4,396,18,580,581,586,585
CQUAD4,397,18,581,582,587,586
CQUAD4,398,18,582,583,588,587
CQUAD4,399,18,584,585,590,589
CQUAD4,400,18,585,586,591,590
CQUAD4,401,18,586,587,592,591
CQUAD4,402,18,587,588,593,592
$HMNAME COMP 19 "F08_CASE_08_PATCH_SMALL_HOLE_REVIEW__LARGE_PATCH_TARGET_T2"
$HMCOMP ID 19
CQUAD4,403,19,594,595,604,603
CQUAD4,404,19,595,596,605,604
CQUAD4,405,19,596,597,606,605
CQUAD4,406,19,597,598,607,606
CQUAD4,407,19,598,599,608,607
CQUAD4,408,19,599,600,609,608
CQUAD4,409,19,600,601,610,609
CQUAD4,410,19,601,602,611,610
CQUAD4,411,19,603,604,613,612
CQUAD4,412,19,604,605,614,613
CQUAD4,413,19,605,606,615,614
CQUAD4,414,19,606,607,616,615
CQUAD4,415,19,607,608,617,616
CQUAD4,416,19,608,609,618,617
CQUAD4,417,19,609,610,619,618
CQUAD4,418,19,610,611,620,619
CQUAD4,419,19,612,613,622,621
CQUAD4,420,19,613,614,623,622
CQUAD4,421,19,614,615,624,623
CQUAD4,422,19,615,616,625,624
$ ... 28 like lines cut
$HMNAME COMP 20 "F08_CASE_08_PATCH_SMALL_HOLE_REVIEW__PATCH_WITH_SMALL_HOLE_T1"
$HMCOMP ID 20
CQUAD4,451,20,657,658,665,664
CQUAD4,452,20,658,659,666,665
CQUAD4,453,20,659,660,667,666
CQUAD4,454,20,660,661,668,667
CQUAD4,455,20,661,662,669,668
CQUAD4,456,20,662,663,670,669
CQUAD4,457,20,664,665,672,671
CQUAD4,458,20,665,666,673,672
CQUAD4,459,20,668,669,676,675
CQUAD4,460,20,669,670,677,676
CQUAD4,461,20,671,672,679,678
CQUAD4,462,20,672,673,680,679
CQUAD4,463,20,675,676,683,682
CQUAD4,464,20,676,677,684,683
CQUAD4,465,20,678,679,686,685
CQUAD4,466,20,679,680,687,686
CQUAD4,467,20,680,681,688,687
CQUAD4,468,20,681,682,689,688
CQUAD4,469,20,682,683,690,689
CQUAD4,470,20,683,684,691,690
$HMNAME COMP 21 "F09_CASE_09_NEAR_FREE_EDGES_REVIEW__EDGE_PLATE_A_T1"
$HMCOMP ID 21
CQUAD4,471,21,692,693,698,697
CQUAD4,472,21,693,694,699,698
CQUAD4,473,21,694,695,700,699
CQUAD4,474,21,695,696,701,700
CQUAD4,475,21,697,698,703,702
CQUAD4,476,21,698,699,704,703
CQUAD4,477,21,699,700,705,704
CQUAD4,478,21,700,701,706,705
CQUAD4,479,21,702,703,708,707
CQUAD4,480,21,703,704,709,708
CQUAD4,481,21,704,705,710,709
CQUAD4,482,21,705,706,711,710
$HMNAME COMP 22 "F09_CASE_09_NEAR_FREE_EDGES_REVIEW__EDGE_PLATE_B_T1"
$HMCOMP ID 22
CQUAD4,483,22,712,713,718,717
CQUAD4,484,22,713,714,719,718
CQUAD4,485,22,714,715,720,719
CQUAD4,486,22,715,716,721,720
CQUAD4,487,22,717,718,723,722
CQUAD4,488,22,718,719,724,723
CQUAD4,489,22,719,720,725,724
CQUAD4,490,22,720,721,726,725
CQUAD4,491,22,722,723,728,727
CQUAD4,492,22,723,724,729,728
CQUAD4,493,22,724,725,730,729
CQUAD4,494,22,725,726,731,730
$HMNAME COMP 23 "F10_CASE_10_NEGATIVE_FAR_APART__FAR_A_T1"
$HMCOMP ID 23
CQUAD4,495,23,732,733,737,736
CQUAD4,496,23,733,734,738,737
CQUAD4,497,23,734,735,739,738
CQUAD4,498,23,736,737,741,740
CQUAD4,499,23,737,738,742,741
CQUAD4,500,23,738,739,743,742
CQUAD4,501,23,740,741,745,744
CQUAD4,502,23,741,742,746,745
CQUAD4,503,23,742,743,747,746
$HMNAME COMP 24 "F10_CASE_10_NEGATIVE_FAR_APART__FAR_B_T1"
$HMCOMP ID 24
CQUAD4,504,24,748,749,753,752
CQUAD4,505,24,749,750,754,753
CQUAD4,506,24,750,751,755,754
CQUAD4,507,24,752,753,757,756
CQUAD4,508,24,753,754,758,757
CQUAD4,509,24,754,755,759,758
CQUAD4,510,24,756,757,761,760
CQUAD4,511,24,757,758,762,761
CQUAD4,512,24,758,759,763,762
PSHELL,1,1,2
PSHELL,2,1,1
PSHELL,3,1,2
PSHELL,4,1,1
PSHELL,5,1,2
PSHELL,6,1,1
PSHELL,7,1,2
PSHELL,8,1,1
PSHELL,9,1,2
PSHELL,10,1,2
PSHELL,11,1,1
PSHELL,12,1,2
PSHELL,13,1,2
PSHELL,14,1,2
PSHELL,15,1,2
PSHELL,16,1,1
PSHELL,17,1,2
PSHELL,18,1,1
PSHELL,19,1,2
PSHELL,20,1,1
$ ... 4 like lines cut
MAT1,1,210000,,0.3
ENDDATA
