$ HMWF_OFFLINE_AUTO_SEAM_MODEL
BEGIN BULK
GRID,40000,,-200,-150,0
GRID,40001,,-160,-150,0
GRID,40002,,-120,-150,0
GRID,40003,,-80,-150,0
GRID,40004,,-40,-150,0
GRID,40005,,0,-150,0
GRID,40006,,40,-150,0
GRID,40007,,80,-150,0
GRID,40008,,120,-150,0
GRID,40009,,160,-150,0
GRID,40010,,200,-150,0
GRID,40011,,-200,-112.5,0
GRID,40012,,-160,-112.5,0
GRID,40013,,-120,-112.5,0
GRID,40014,,-80,-112.5,0
GRID,40015,,-40,-112.5,0
GRID,40016,,0,-112.5,0
GRID,40017,,40,-112.5,0
GRID,40018,,80,-112.5,0
GRID,40019,,120,-112.5,0
$ ... 342 like lines cut
$ CASE TC040_BASE
$ ===============
$HMNAME COMP 60000 "TC040_BASE"
$HMCOMP ID 60000
CQUAD4,50000,70000,40000,40001,40012,40011
CQUAD4,50001,70000,40001,40002,40013,40012
CQUAD4,50002,70000,40002,40003,40014,40013
CQUAD4,50003,70000,40003,40004,40015,40014
CQUAD4,50004,70000,40004,40005,40016,40015
CQUAD4,50005,70000,40005,40006,40017,40016
CQUAD4,50006,70000,40006,40007,40018,40017
CQUAD4,50007,70000,40007,40008,40019,40018
CQUAD4,50008,70000,40008,40009,40020,40019
CQUAD4,50009,70000,40009,40010,40021,40020
CQUAD4,50010,70000,40011,40012,40023,40022
CQUAD4,50011,70000,40012,40013,40024,40023
CQUAD4,50012,70000,40013,40014,40025,40024
CQUAD4,50013,70000,40014,40015,40026,40025
CQUAD4,50014,70000,40015,40016,40027,40026
CQUAD4,50015,70000,40016,40017,40028,40027
CQUAD4,50016,70000,40017,40018,40029,40028
CQUAD4,50017,70000,40018,40019,40030,40029
CQUAD4,50018,70000,40019,40020,40031,40030
CQUAD4,50019,70000,40020,40021,40032,40031
$ ... 60 like lines cut
$ CASE TC040_PATCH
$ ================
$HMNAME COMP 60001 "TC040_PATCH"
$HMCOMP ID 60001
CQUAD4,50080,70001,40099,40100,40117,40116
CQUAD4,50081,70001,40100,40101,40118,40117
CQUAD4,50082,70001,40101,40102,40119,40118
CQUAD4,50083,70001,40102,40103,40120,40119
CQUAD4,50084,70001,40103,40104,40121,40120
CQUAD4,50085,70001,40104,40105,40122,40121
CQUAD4,50086,70001,40105,40106,40123,40122
CQUAD4,50087,70001,40106,40107,40124,40123
CQUAD4,50088,70001,40107,40108,40125,40124
CQUAD4,50089,70001,40108,40109,40126,40125
CQUAD4,50090,70001,40109,40110,40127,40126
CQUAD4,50091,70001,40110,40111,40128,40127
CQUAD4,50092,70001,40111,40112,40129,40128
CQUAD4,50093,70001,40112,40113,40130,40129
CQUAD4,50094,70001,40113,40114,40131,40130
CQUAD4,50095,70001,40114,40115,40132,40131
CQUAD4,50096,70001,40116,40117,40134,40133
CQUAD4,50097,70001,40117,40118,40135,40134
CQUAD4,50098,70001,40118,40119,40136,40135
CQUAD4,50099,70001,40119,40120,40137,40136
$ ... 172 like lines cut
$ CASE TC040_L1_PATCH
$ ===================
$HMNAME COMP 60002 "TC040_L1_PATCH"
$HMCOMP ID 60002
CQUAD4,50272,70002,40320,40321,40328,40327
CQUAD4,50273,70002,40321,40322,40329,40328
CQUAD4,50274,70002,40322,40323,40330,40329
CQUAD4,50275,70002,40323,40324,40331,40330
CQUAD4,50276,70002,40324,40325,40332,40331
CQUAD4,50277,70002,40325,40326,40333,40332
CQUAD4,50278,70002,40327,40328,40335,40334
CQUAD4,50279,70002,40328,40329,40336,40335
CQUAD4,50280,70002,40329,40330,40337,40336
CQUAD4,50281,70002,40330,40331,40338,40337
CQUAD4,50282,70002,40331,40332,40339,40338
CQUAD4,50283,70002,40332,40333,40340,40339
CQUAD4,50284,70002,40334,40335,40342,40341
CQUAD4,50285,70002,40335,40336,40343,40342
CQUAD4,50286,70002,40336,40337,40344,40343
CQUAD4,50287,70002,40337,40338,40345,40344
CQUAD4,50288,70002,40338,40339,40346,40345
CQUAD4,50289,70002,40339,40340,40347,40346
CQUAD4,50290,70002,40341,40342,40349,40348
CQUAD4,50291,70002,40342,40343,40350,40349
$ ... 10 like lines cut
PSHELL,70000,1,10
PSHELL,70001,1,6
PSHELL,70002,1,6
MAT1,1,210000,,0.3
ENDDATA
