$ HMWF_OFFLINE_AUTO_SEAM_MODEL
BEGIN BULK
GRID,41000,,0,-100,0
GRID,41001,,20,-100,0
GRID,41002,,40,-100,0
GRID,41003,,60,-100,0
GRID,41004,,80,-100,0
GRID,41005,,100,-100,0
GRID,41006,,120,-100,0
GRID,41007,,140,-100,0
GRID,41008,,160,-100,0
GRID,41009,,180,-100,0
GRID,41010,,200,-100,0
GRID,41011,,220,-100,0
GRID,41012,,240,-100,0
GRID,41013,,260,-100,0
GRID,41014,,280,-100,0
GRID,41015,,300,-100,0
GRID,41016,,320,-100,0
GRID,41017,,340,-100,0
GRID,41018,,360,-100,0
GRID,41019,,380,-100,0
$ ... 355 like lines cut
$ CASE TC041_TGT_BASE
$ ===================
$HMNAME COMP 61000 "TC041_TGT_BASE"
$HMCOMP ID 61000
CQUAD4,51000,71000,41000,41001,41022,41021
CQUAD4,51001,71000,41001,41002,41023,41022
CQUAD4,51002,71000,41002,41003,41024,41023
CQUAD4,51003,71000,41003,41004,41025,41024
CQUAD4,51004,71000,41004,41005,41026,41025
CQUAD4,51005,71000,41005,41006,41027,41026
CQUAD4,51006,71000,41006,41007,41028,41027
CQUAD4,51007,71000,41007,41008,41029,41028
CQUAD4,51008,71000,41008,41009,41030,41029
CQUAD4,51009,71000,41009,41010,41031,41030
CQUAD4,51010,71000,41010,41011,41032,41031
CQUAD4,51011,71000,41011,41012,41033,41032
CQUAD4,51012,71000,41012,41013,41034,41033
CQUAD4,51013,71000,41013,41014,41035,41034
CQUAD4,51014,71000,41014,41015,41036,41035
CQUAD4,51015,71000,41015,41016,41037,41036
CQUAD4,51016,71000,41016,41017,41038,41037
CQUAD4,51017,71000,41017,41018,41039,41038
CQUAD4,51018,71000,41018,41019,41040,41039
CQUAD4,51019,71000,41019,41020,41041,41040
$ ... 180 like lines cut
$ CASE TC041_SRC_STIFF
$ ====================
$HMNAME COMP 61001 "TC041_SRC_STIFF"
$HMCOMP ID 61001
CQUAD4,51200,71001,41231,41232,41247,41246
CQUAD4,51201,71001,41232,41233,41248,41247
CQUAD4,51202,71001,41233,41234,41249,41248
CQUAD4,51203,71001,41234,41235,41250,41249
CQUAD4,51204,71001,41235,41236,41251,41250
CQUAD4,51205,71001,41236,41237,41252,41251
CQUAD4,51206,71001,41237,41238,41253,41252
CQUAD4,51207,71001,41238,41239,41254,41253
CQUAD4,51208,71001,41239,41240,41255,41254
CQUAD4,51209,71001,41240,41241,41256,41255
CQUAD4,51210,71001,41241,41242,41257,41256
CQUAD4,51211,71001,41242,41243,41258,41257
CQUAD4,51212,71001,41243,41244,41259,41258
CQUAD4,51213,71001,41244,41245,41260,41259
$ CASE TC041_SRC_DOUBLER
$ ======================
$HMNAME COMP 61002 "TC041_SRC_DOUBLER"
$HMCOMP ID 61002
CQUAD4,51214,71002,41261,41262,41281,41280
CQUAD4,51215,71002,41262,41263,41282,41281
CQUAD4,51216,71002,41263,41264,41283,41282
CQUAD4,51217,71002,41264,41265,41284,41283
CQUAD4,51218,71002,41265,41266,41285,41284
CQUAD4,51219,71002,41266,41267,41286,41285
CQUAD4,51220,71002,41267,41268,41287,41286
CQUAD4,51221,71002,41268,41269,41288,41287
CQUAD4,51222,71002,41269,41270,41289,41288
CQUAD4,51223,71002,41270,41271,41290,41289
CQUAD4,51224,71002,41271,41272,41291,41290
CQUAD4,51225,71002,41272,41273,41292,41291
CQUAD4,51226,71002,41273,41274,41293,41292
CQUAD4,51227,71002,41274,41275,41294,41293
CQUAD4,51228,71002,41275,41276,41295,41294
CQUAD4,51229,71002,41276,41277,41296,41295
CQUAD4,51230,71002,41277,41278,41297,41296
CQUAD4,51231,71002,41278,41279,41298,41297
CQUAD4,51232,71002,41280,41281,41300,41299
CQUAD4,51233,71002,41281,41282,41301,41300
$ ... 70 like lines cut
PSHELL,71000,1,10
PSHELL,71001,1,6
PSHELL,71002,1,6
MAT1,1,210000,,0.3
ENDDATA
