$ HMWF_OFFLINE_AUTO_SEAM_MODEL
BEGIN BULK
GRID,17000,,0,-100,0
GRID,17001,,20,-100,0
GRID,17002,,40,-100,0
GRID,17003,,60,-100,0
GRID,17004,,80,-100,0
GRID,17005,,100,-100,0
GRID,17006,,120,-100,0
GRID,17007,,140,-100,0
GRID,17008,,160,-100,0
GRID,17009,,180,-100,0
GRID,17010,,200,-100,0
GRID,17011,,220,-100,0
GRID,17012,,240,-100,0
GRID,17013,,260,-100,0
GRID,17014,,280,-100,0
GRID,17015,,300,-100,0
GRID,17016,,320,-100,0
GRID,17017,,340,-100,0
GRID,17018,,360,-100,0
GRID,17019,,380,-100,0
$ ... 627 like lines cut
$ CASE TC017_TGT_BASE
$ ===================
$HMNAME COMP 37000 "TC017_TGT_BASE"
$HMCOMP ID 37000
CQUAD4,27000,47000,17000,17001,17022,17021,,,
+,,,8,8.4,8.4,8
CQUAD4,27001,47000,17001,17002,17023,17022,,,
+,,,8.4,8.8,8.8,8.4
CQUAD4,27002,47000,17002,17003,17024,17023,,,
+,,,8.8,9.2,9.2,8.8
CQUAD4,27003,47000,17003,17004,17025,17024,,,
+,,,9.2,9.6,9.6,9.2
CQUAD4,27004,47000,17004,17005,17026,17025,,,
+,,,9.6,10,10,9.6
CQUAD4,27005,47000,17005,17006,17027,17026,,,
+,,,10,10.4,10.4,10
CQUAD4,27006,47000,17006,17007,17028,17027,,,
+,,,10.4,10.8,10.8,10.4
CQUAD4,27007,47000,17007,17008,17029,17028,,,
+,,,10.8,11.2,11.2,10.8
CQUAD4,27008,47000,17008,17009,17030,17029,,,
+,,,11.2,11.6,11.6,11.2
CQUAD4,27009,47000,17009,17010,17031,17030,,,
+,,,11.6,12,12,11.6
CQUAD4,27010,47000,17010,17011,17032,17031,,,
+,,,12,12.4,12.4,12
CQUAD4,27011,47000,17011,17012,17033,17032,,,
+,,,12.4,12.8,12.8,12.4
CQUAD4,27012,47000,17012,17013,17034,17033,,,
+,,,12.8,13.2,13.2,12.8
CQUAD4,27013,47000,17013,17014,17035,17034,,,
+,,,13.2,13.6,13.6,13.2
CQUAD4,27014,47000,17014,17015,17036,17035,,,
+,,,13.6,14,14,13.6
CQUAD4,27015,47000,17015,17016,17037,17036,,,
+,,,14,14.4,14.4,14
CQUAD4,27016,47000,17016,17017,17038,17037,,,
+,,,14.4,14.8,14.8,14.4
CQUAD4,27017,47000,17017,17018,17039,17038,,,
+,,,14.8,15.2,15.2,14.8
CQUAD4,27018,47000,17018,17019,17040,17039,,,
+,,,15.2,15.6,15.6,15.2
CQUAD4,27019,47000,17019,17020,17041,17040,,,
+,,,15.6,16,16,15.6
$ ... 360 like lines cut
$ CASE TC017_SRC_WEB
$ ==================
$HMNAME COMP 37001 "TC017_SRC_WEB"
$HMCOMP ID 37001
CQUAD4,27200,47001,17231,17232,17264,17263
CQUAD4,27201,47001,17232,17233,17265,17264
CQUAD4,27202,47001,17233,17234,17266,17265
CQUAD4,27203,47001,17234,17235,17267,17266
CQUAD4,27204,47001,17235,17236,17268,17267
CQUAD4,27205,47001,17236,17237,17269,17268
CQUAD4,27206,47001,17237,17238,17270,17269
CQUAD4,27207,47001,17238,17239,17271,17270
CQUAD4,27208,47001,17239,17240,17272,17271
CQUAD4,27209,47001,17240,17241,17273,17272
CQUAD4,27210,47001,17241,17242,17274,17273
CQUAD4,27211,47001,17242,17243,17275,17274
CQUAD4,27212,47001,17243,17244,17276,17275
CQUAD4,27213,47001,17244,17245,17277,17276
CQUAD4,27214,47001,17245,17246,17278,17277
CQUAD4,27215,47001,17246,17247,17279,17278
CQUAD4,27216,47001,17247,17248,17280,17279
CQUAD4,27217,47001,17248,17249,17281,17280
CQUAD4,27218,47001,17249,17250,17282,17281
CQUAD4,27219,47001,17250,17251,17283,17282
$ ... 352 like lines cut
PSHELL,47000,1,12
PSHELL,47001,1,6
MAT1,1,210000,,0.3
ENDDATA
