$ HMWF_OFFLINE_AUTO_SEAM_MODEL
BEGIN BULK
GRID,27000,,0,0,0
GRID,27001,,10,0,0
GRID,27002,,20,0,0
GRID,27003,,30,0,0
GRID,27004,,40,0,0
GRID,27005,,50,0,0
GRID,27006,,60,0,0
GRID,27007,,70,0,0
GRID,27008,,80,0,0
GRID,27009,,90,0,0
GRID,27010,,100,0,0
GRID,27011,,110,0,0
GRID,27012,,120,0,0
GRID,27013,,130,0,0
GRID,27014,,140,0,0
GRID,27015,,150,0,0
GRID,27016,,160,0,0
GRID,27017,,170,0,0
GRID,27018,,180,0,0
GRID,27019,,190,0,0
$ ... 1104 like lines cut
$ CASE TC027_SRC_PLATE
$ ====================
$HMNAME COMP 47000 "TC027_SRC_PLATE"
$HMCOMP ID 47000
CQUAD4,37000,57000,27000,27001,27042,27041
CQUAD4,37001,57000,27001,27002,27043,27042
CQUAD4,37002,57000,27002,27003,27044,27043
CQUAD4,37003,57000,27003,27004,27045,27044
CQUAD4,37004,57000,27004,27005,27046,27045
CQUAD4,37005,57000,27005,27006,27047,27046
CQUAD4,37006,57000,27006,27007,27048,27047
CQUAD4,37007,57000,27007,27008,27049,27048
CQUAD4,37008,57000,27008,27009,27050,27049
CQUAD4,37009,57000,27009,27010,27051,27050
CQUAD4,37010,57000,27010,27011,27052,27051
CQUAD4,37011,57000,27011,27012,27053,27052
CQUAD4,37012,57000,27012,27013,27054,27053
CQUAD4,37013,57000,27013,27014,27055,27054
CQUAD4,37014,57000,27014,27015,27056,27055
CQUAD4,37015,57000,27015,27016,27057,27056
CQUAD4,37016,57000,27016,27017,27058,27057
CQUAD4,37017,57000,27017,27018,27059,27058
CQUAD4,37018,57000,27018,27019,27060,27059
CQUAD4,37019,57000,27019,27020,27061,27060
$ ... 908 like lines cut
$ CASE TC027_TGT_SHELF
$ ====================
$HMNAME COMP 47001 "TC027_TGT_SHELF"
$HMCOMP ID 47001
CQUAD4,37928,57001,28025,28026,28035,28034
CQUAD4,37929,57001,28026,28027,28036,28035
CQUAD4,37930,57001,28027,28028,28037,28036
CQUAD4,37931,57001,28028,28029,28038,28037
CQUAD4,37932,57001,28029,28030,28039,28038
CQUAD4,37933,57001,28030,28031,28040,28039
CQUAD4,37934,57001,28031,28032,28041,28040
CQUAD4,37935,57001,28032,28033,28042,28041
CQUAD4,37936,57001,28034,28035,28044,28043
CQUAD4,37937,57001,28035,28036,28045,28044
CQUAD4,37938,57001,28036,28037,28046,28045
CQUAD4,37939,57001,28037,28038,28047,28046
CQUAD4,37940,57001,28038,28039,28048,28047
CQUAD4,37941,57001,28039,28040,28049,28048
CQUAD4,37942,57001,28040,28041,28050,28049
CQUAD4,37943,57001,28041,28042,28051,28050
CQUAD4,37944,57001,28043,28044,28053,28052
CQUAD4,37945,57001,28044,28045,28054,28053
CQUAD4,37946,57001,28045,28046,28055,28054
CQUAD4,37947,57001,28046,28047,28056,28055
$ ... 60 like lines cut
PSHELL,57000,1,6
PSHELL,57001,1,10
MAT1,1,210000,,0.3
ENDDATA
