$ HMWF_OFFLINE_AUTO_SEAM_MODEL
BEGIN BULK
GRID,35000,,-200,-150,0
GRID,35001,,-160,-150,0
GRID,35002,,-120,-150,0
GRID,35003,,-80,-150,0
GRID,35004,,-40,-150,0
GRID,35005,,0,-150,0
GRID,35006,,40,-150,0
GRID,35007,,80,-150,0
GRID,35008,,120,-150,0
GRID,35009,,160,-150,0
GRID,35010,,200,-150,0
GRID,35011,,-200,-112.5,0
GRID,35012,,-160,-112.5,0
GRID,35013,,-120,-112.5,0
GRID,35014,,-80,-112.5,0
GRID,35015,,-40,-112.5,0
GRID,35016,,0,-112.5,0
GRID,35017,,40,-112.5,0
GRID,35018,,80,-112.5,0
GRID,35019,,120,-112.5,0
$ ... 99 like lines cut
$ CASE TC035_BASE
$ ===============
$HMNAME COMP 55000 "TC035_BASE"
$HMCOMP ID 55000
CQUAD4,45000,65000,35000,35001,35012,35011
CQUAD4,45001,65000,35001,35002,35013,35012
CQUAD4,45002,65000,35002,35003,35014,35013
CQUAD4,45003,65000,35003,35004,35015,35014
CQUAD4,45004,65000,35004,35005,35016,35015
CQUAD4,45005,65000,35005,35006,35017,35016
CQUAD4,45006,65000,35006,35007,35018,35017
CQUAD4,45007,65000,35007,35008,35019,35018
CQUAD4,45008,65000,35008,35009,35020,35019
CQUAD4,45009,65000,35009,35010,35021,35020
CQUAD4,45010,65000,35011,35012,35023,35022
CQUAD4,45011,65000,35012,35013,35024,35023
CQUAD4,45012,65000,35013,35014,35025,35024
CQUAD4,45013,65000,35014,35015,35026,35025
CQUAD4,45014,65000,35015,35016,35027,35026
CQUAD4,45015,65000,35016,35017,35028,35027
CQUAD4,45016,65000,35017,35018,35029,35028
CQUAD4,45017,65000,35018,35019,35030,35029
CQUAD4,45018,65000,35019,35020,35031,35030
CQUAD4,45019,65000,35020,35021,35032,35031
$ ... 60 like lines cut
$ CASE TC035_PATCH
$ ================
$HMNAME COMP 55001 "TC035_PATCH"
$HMCOMP ID 55001
CQUAD4,45080,65001,35099,35100,35105,35104
CQUAD4,45081,65001,35100,35101,35106,35105
CQUAD4,45082,65001,35101,35102,35107,35106
CQUAD4,45083,65001,35102,35103,35108,35107
CQUAD4,45084,65001,35104,35105,35110,35109
CQUAD4,45085,65001,35105,35106,35111,35110
CQUAD4,45086,65001,35106,35107,35112,35111
CQUAD4,45087,65001,35107,35108,35113,35112
CQUAD4,45088,65001,35109,35110,35115,35114
CQUAD4,45089,65001,35110,35111,35116,35115
CQUAD4,45090,65001,35111,35112,35117,35116
CQUAD4,45091,65001,35112,35113,35118,35117
PSHELL,65000,1,10
PSHELL,65001,1,6
MAT1,1,210000,,0.3
ENDDATA
