$ HMWF_OFFLINE_AUTO_SEAM_MODEL
BEGIN BULK
GRID,42000,,0,-120,0
GRID,42001,,20,-120,0
GRID,42002,,40,-120,0
GRID,42003,,60,-120,0
GRID,42004,,80,-120,0
GRID,42005,,100,-120,0
GRID,42006,,120,-120,0
GRID,42007,,140,-120,0
GRID,42008,,160,-120,0
GRID,42009,,180,-120,0
GRID,42010,,200,-120,0
GRID,42011,,220,-120,0
GRID,42012,,240,-120,0
GRID,42013,,260,-120,0
GRID,42014,,280,-120,0
GRID,42015,,300,-120,0
GRID,42016,,320,-120,0
GRID,42017,,340,-120,0
GRID,42018,,360,-120,0
GRID,42019,,380,-120,0
$ ... 331 like lines cut
$ CASE TC042_TGT_BASE
$ ===================
$HMNAME COMP 62000 "TC042_TGT_BASE"
$HMCOMP ID 62000
CQUAD4,52000,72000,42000,42001,42022,42021
CQUAD4,52001,72000,42001,42002,42023,42022
CQUAD4,52002,72000,42002,42003,42024,42023
CQUAD4,52003,72000,42003,42004,42025,42024
CQUAD4,52004,72000,42004,42005,42026,42025
CQUAD4,52005,72000,42005,42006,42027,42026
CQUAD4,52006,72000,42006,42007,42028,42027
CQUAD4,52007,72000,42007,42008,42029,42028
CQUAD4,52008,72000,42008,42009,42030,42029
CQUAD4,52009,72000,42009,42010,42031,42030
CQUAD4,52010,72000,42010,42011,42032,42031
CQUAD4,52011,72000,42011,42012,42033,42032
CQUAD4,52012,72000,42012,42013,42034,42033
CQUAD4,52013,72000,42013,42014,42035,42034
CQUAD4,52014,72000,42014,42015,42036,42035
CQUAD4,52015,72000,42015,42016,42037,42036
CQUAD4,52016,72000,42016,42017,42038,42037
CQUAD4,52017,72000,42017,42018,42039,42038
CQUAD4,52018,72000,42018,42019,42040,42039
CQUAD4,52019,72000,42019,42020,42041,42040
$ ... 220 like lines cut
$ CASE TC042_SRC_LONG
$ ===================
$HMNAME COMP 62001 "TC042_SRC_LONG"
$HMCOMP ID 62001
CQUAD4,52240,72001,42273,42274,42303,42302
CQUAD4,52241,72001,42274,42275,42304,42303
CQUAD4,52242,72001,42275,42276,42305,42304
CQUAD4,52243,72001,42276,42277,42306,42305
CQUAD4,52244,72001,42277,42278,42307,42306
CQUAD4,52245,72001,42278,42279,42308,42307
CQUAD4,52246,72001,42279,42280,42309,42308
CQUAD4,52247,72001,42280,42281,42310,42309
CQUAD4,52248,72001,42281,42282,42311,42310
CQUAD4,52249,72001,42282,42283,42312,42311
CQUAD4,52250,72001,42283,42284,42313,42312
CQUAD4,52251,72001,42284,42285,42314,42313
CQUAD4,52252,72001,42285,42286,42315,42314
CQUAD4,52253,72001,42286,42287,42316,42315
CQUAD4,52254,72001,42287,42288,42317,42316
CQUAD4,52255,72001,42288,42289,42318,42317
CQUAD4,52256,72001,42289,42290,42319,42318
CQUAD4,52257,72001,42290,42291,42320,42319
CQUAD4,52258,72001,42291,42292,42321,42320
CQUAD4,52259,72001,42292,42293,42322,42321
$ ... 8 like lines cut
$ CASE TC042_SRC_CROSS
$ ====================
$HMNAME COMP 62002 "TC042_SRC_CROSS"
$HMCOMP ID 62002
CQUAD4,52268,72002,42331,42332,42342,42341
CQUAD4,52269,72002,42332,42333,42343,42342
CQUAD4,52270,72002,42333,42334,42344,42343
CQUAD4,52271,72002,42334,42335,42345,42344
CQUAD4,52272,72002,42335,42336,42346,42345
CQUAD4,52273,72002,42336,42337,42347,42346
CQUAD4,52274,72002,42337,42338,42348,42347
CQUAD4,52275,72002,42338,42339,42349,42348
CQUAD4,52276,72002,42339,42340,42350,42349
PSHELL,72000,1,10
PSHELL,72001,1,6
PSHELL,72002,1,6
MAT1,1,210000,,0.3
ENDDATA
