$ HMWF_OFFLINE_AUTO_SEAM_MODEL
BEGIN BULK
GRID,23000,,0,-100,0
GRID,23001,,20,-100,0
GRID,23002,,40,-100,0
GRID,23003,,60,-100,0
GRID,23004,,80,-100,0
GRID,23005,,100,-100,0
GRID,23006,,120,-100,0
GRID,23007,,140,-100,0
GRID,23008,,160,-100,0
GRID,23009,,180,-100,0
GRID,23010,,200,-100,0
GRID,23011,,220,-100,0
GRID,23012,,240,-100,0
GRID,23013,,260,-100,0
GRID,23014,,280,-100,0
GRID,23015,,300,-100,0
GRID,23016,,320,-100,0
GRID,23017,,340,-100,0
GRID,23018,,360,-100,0
GRID,23019,,380,-100,0
$ ... 783 like lines cut
$ CASE TC023_B
$ ============
$HMNAME COMP 43000 "TC023_B"
$HMCOMP ID 43000
CQUAD4,33000,53000,23000,23001,23022,23021
CQUAD4,33001,53000,23001,23002,23023,23022
CQUAD4,33002,53000,23002,23003,23024,23023
CQUAD4,33003,53000,23003,23004,23025,23024
CQUAD4,33004,53000,23004,23005,23026,23025
CQUAD4,33005,53000,23005,23006,23027,23026
CQUAD4,33006,53000,23006,23007,23028,23027
CQUAD4,33007,53000,23007,23008,23029,23028
CQUAD4,33008,53000,23008,23009,23030,23029
CQUAD4,33009,53000,23009,23010,23031,23030
CQUAD4,33010,53000,23010,23011,23032,23031
CQUAD4,33011,53000,23011,23012,23033,23032
CQUAD4,33012,53000,23012,23013,23034,23033
CQUAD4,33013,53000,23013,23014,23035,23034
CQUAD4,33014,53000,23014,23015,23036,23035
CQUAD4,33015,53000,23015,23016,23037,23036
CQUAD4,33016,53000,23016,23017,23038,23037
CQUAD4,33017,53000,23017,23018,23039,23038
CQUAD4,33018,53000,23018,23019,23040,23039
CQUAD4,33019,53000,23019,23020,23041,23040
$ ... 180 like lines cut
$ CASE TC023_C
$ ============
$HMNAME COMP 43001 "TC023_C"
$HMCOMP ID 43001
CQUAD4,33200,53001,23231,23232,23253,23252
CQUAD4,33201,53001,23232,23233,23254,23253
CQUAD4,33202,53001,23233,23234,23255,23254
CQUAD4,33203,53001,23234,23235,23256,23255
CQUAD4,33204,53001,23235,23236,23257,23256
CQUAD4,33205,53001,23236,23237,23258,23257
CQUAD4,33206,53001,23237,23238,23259,23258
CQUAD4,33207,53001,23238,23239,23260,23259
CQUAD4,33208,53001,23239,23240,23261,23260
CQUAD4,33209,53001,23240,23241,23262,23261
CQUAD4,33210,53001,23241,23242,23263,23262
CQUAD4,33211,53001,23242,23243,23264,23263
CQUAD4,33212,53001,23243,23244,23265,23264
CQUAD4,33213,53001,23244,23245,23266,23265
CQUAD4,33214,53001,23245,23246,23267,23266
CQUAD4,33215,53001,23246,23247,23268,23267
CQUAD4,33216,53001,23247,23248,23269,23268
CQUAD4,33217,53001,23248,23249,23270,23269
CQUAD4,33218,53001,23249,23250,23271,23270
CQUAD4,33219,53001,23250,23251,23272,23271
$ ... 180 like lines cut
$ CASE TC023_SRC_WEB
$ ==================
$HMNAME COMP 43002 "TC023_SRC_WEB"
$HMCOMP ID 43002
CQUAD4,33400,53002,23462,23463,23494,23493
CQUAD4,33401,53002,23463,23464,23495,23494
CQUAD4,33402,53002,23464,23465,23496,23495
CQUAD4,33403,53002,23465,23466,23497,23496
CQUAD4,33404,53002,23466,23467,23498,23497
CQUAD4,33405,53002,23467,23468,23499,23498
CQUAD4,33406,53002,23468,23469,23500,23499
CQUAD4,33407,53002,23469,23470,23501,23500
CQUAD4,33408,53002,23470,23471,23502,23501
CQUAD4,33409,53002,23471,23472,23503,23502
CQUAD4,33410,53002,23472,23473,23504,23503
CQUAD4,33411,53002,23473,23474,23505,23504
CQUAD4,33412,53002,23474,23475,23506,23505
CQUAD4,33413,53002,23475,23476,23507,23506
CQUAD4,33414,53002,23476,23477,23508,23507
CQUAD4,33415,53002,23477,23478,23509,23508
CQUAD4,33416,53002,23478,23479,23510,23509
CQUAD4,33417,53002,23479,23480,23511,23510
CQUAD4,33418,53002,23480,23481,23512,23511
CQUAD4,33419,53002,23481,23482,23513,23512
$ ... 280 like lines cut
PSHELL,53000,1,10
PSHELL,53001,1,10
PSHELL,53002,1,6
MAT1,1,210000,,0.3
ENDDATA
