$ HMWF_OFFLINE_AUTO_SEAM_MODEL
BEGIN BULK
GRID,4000,,0,-100,0
GRID,4001,,20,-100,0
GRID,4002,,40,-100,0
GRID,4003,,60,-100,0
GRID,4004,,80,-100,0
GRID,4005,,100,-100,0
GRID,4006,,120,-100,0
GRID,4007,,140,-100,0
GRID,4008,,160,-100,0
GRID,4009,,180,-100,0
GRID,4010,,200,-100,0
GRID,4011,,220,-100,0
GRID,4012,,240,-100,0
GRID,4013,,260,-100,0
GRID,4014,,280,-100,0
GRID,4015,,300,-100,0
GRID,4016,,320,-100,0
GRID,4017,,340,-100,0
GRID,4018,,360,-100,0
GRID,4019,,380,-100,0
$ ... 552 like lines cut
$ CASE TC004_TGT_BASE
$ ===================
$HMNAME COMP 24000 "TC004_TGT_BASE"
$HMCOMP ID 24000
CQUAD4,14000,34000,4000,4001,4022,4021,,-2,
CQUAD4,14001,34000,4001,4002,4023,4022,,-2,
CQUAD4,14002,34000,4002,4003,4024,4023,,-2,
CQUAD4,14003,34000,4003,4004,4025,4024,,-2,
CQUAD4,14004,34000,4004,4005,4026,4025,,-2,
CQUAD4,14005,34000,4005,4006,4027,4026,,-2,
CQUAD4,14006,34000,4006,4007,4028,4027,,-2,
CQUAD4,14007,34000,4007,4008,4029,4028,,-2,
CQUAD4,14008,34000,4008,4009,4030,4029,,-2,
CQUAD4,14009,34000,4009,4010,4031,4030,,-2,
CQUAD4,14010,34000,4010,4011,4032,4031,,-2,
CQUAD4,14011,34000,4011,4012,4033,4032,,-2,
CQUAD4,14012,34000,4012,4013,4034,4033,,-2,
CQUAD4,14013,34000,4013,4014,4035,4034,,-2,
CQUAD4,14014,34000,4014,4015,4036,4035,,-2,
CQUAD4,14015,34000,4015,4016,4037,4036,,-2,
CQUAD4,14016,34000,4016,4017,4038,4037,,-2,
CQUAD4,14017,34000,4017,4018,4039,4038,,-2,
CQUAD4,14018,34000,4018,4019,4040,4039,,-2,
CQUAD4,14019,34000,4019,4020,4041,4040,,-2,
$ ... 180 like lines cut
$ CASE TC004_SRC_WEB
$ ==================
$HMNAME COMP 24001 "TC004_SRC_WEB"
$HMCOMP ID 24001
CQUAD4,14200,34001,4231,4232,4263,4262
CQUAD4,14201,34001,4232,4233,4264,4263
CQUAD4,14202,34001,4233,4234,4265,4264
CQUAD4,14203,34001,4234,4235,4266,4265
CQUAD4,14204,34001,4235,4236,4267,4266
CQUAD4,14205,34001,4236,4237,4268,4267
CQUAD4,14206,34001,4237,4238,4269,4268
CQUAD4,14207,34001,4238,4239,4270,4269
CQUAD4,14208,34001,4239,4240,4271,4270
CQUAD4,14209,34001,4240,4241,4272,4271
CQUAD4,14210,34001,4241,4242,4273,4272
CQUAD4,14211,34001,4242,4243,4274,4273
CQUAD4,14212,34001,4243,4244,4275,4274
CQUAD4,14213,34001,4244,4245,4276,4275
CQUAD4,14214,34001,4245,4246,4277,4276
CQUAD4,14215,34001,4246,4247,4278,4277
CQUAD4,14216,34001,4247,4248,4279,4278
CQUAD4,14217,34001,4248,4249,4280,4279
CQUAD4,14218,34001,4249,4250,4281,4280
CQUAD4,14219,34001,4250,4251,4282,4281
$ ... 280 like lines cut
PSHELL,34000,1,10
PSHELL,34001,1,6
MAT1,1,210000,,0.3
ENDDATA
