$ HMWF_OFFLINE_AUTO_SEAM_MODEL
BEGIN BULK
GRID,49000,,0,-100,0
GRID,49001,,20,-100,0
GRID,49002,,40,-100,0
GRID,49003,,60,-100,0
GRID,49004,,80,-100,0
GRID,49005,,100,-100,0
GRID,49006,,120,-100,0
GRID,49007,,140,-100,0
GRID,49008,,160,-100,0
GRID,49009,,180,-100,0
GRID,49010,,200,-100,0
GRID,49011,,220,-100,0
GRID,49012,,240,-100,0
GRID,49013,,260,-100,0
GRID,49014,,280,-100,0
GRID,49015,,300,-100,0
GRID,49016,,320,-100,0
GRID,49017,,340,-100,0
GRID,49018,,360,-100,0
GRID,49019,,380,-100,0
$ ... 222 like lines cut
$ CASE TC049_TGT_BASE
$ ===================
$HMNAME COMP 69000 "TC049_TGT_BASE"
$HMCOMP ID 69000
CQUAD4,59000,79000,49000,49001,49022,49021
CQUAD4,59001,79000,49001,49002,49023,49022
CQUAD4,59002,79000,49002,49003,49024,49023
CQUAD4,59003,79000,49003,49004,49025,49024
CQUAD4,59004,79000,49004,49005,49026,49025
CQUAD4,59005,79000,49005,49006,49027,49026
CQUAD4,59006,79000,49006,49007,49028,49027
CQUAD4,59007,79000,49007,49008,49029,49028
CQUAD4,59008,79000,49008,49009,49030,49029
CQUAD4,59009,79000,49009,49010,49031,49030
CQUAD4,59010,79000,49010,49011,49032,49031
CQUAD4,59011,79000,49011,49012,49033,49032
CQUAD4,59012,79000,49012,49013,49034,49033
CQUAD4,59013,79000,49013,49014,49035,49034
CQUAD4,59014,79000,49014,49015,49036,49035
CQUAD4,59015,79000,49015,49016,49037,49036
CQUAD4,59016,79000,49016,49017,49038,49037
CQUAD4,59017,79000,49017,49018,49039,49038
CQUAD4,59018,79000,49018,49019,49040,49039
CQUAD4,59019,79000,49019,49020,49041,49040
$ ... 180 like lines cut
$ CASE TC049_SRC_WEB
$ ==================
$HMNAME COMP 69001 "TC049_SRC_WEB"
$HMCOMP ID 69001
CQUAD4,59200,79001,49110,49111,49232,49231
CQUAD4,59201,79001,49111,49112,49233,49232
CQUAD4,59202,79001,49112,49113,49234,49233
CQUAD4,59203,79001,49113,49114,49235,49234
CQUAD4,59204,79001,49114,49115,49236,49235
CQUAD4,59205,79001,49115,49116,49237,49236
CQUAD4,59206,79001,49116,49117,49238,49237
CQUAD4,59207,79001,49117,49118,49239,49238
CQUAD4,59208,79001,49118,49119,49240,49239
CQUAD4,59209,79001,49119,49120,49241,49240
PSHELL,79000,1,10
PSHELL,79001,1,6
MAT1,1,210000,,0.3
ENDDATA
