$ HMWF_OFFLINE_AUTO_SEAM_MODEL
BEGIN BULK
GRID,36000,,-200,-150,0
GRID,36001,,-160,-150,0
GRID,36002,,-120,-150,0
GRID,36003,,-80,-150,0
GRID,36004,,-40,-150,0
GRID,36005,,0,-150,0
GRID,36006,,40,-150,0
GRID,36007,,80,-150,0
GRID,36008,,120,-150,0
GRID,36009,,160,-150,0
GRID,36010,,200,-150,0
GRID,36011,,-200,-112.5,0
GRID,36012,,-160,-112.5,0
GRID,36013,,-120,-112.5,0
GRID,36014,,-80,-112.5,0
GRID,36015,,-40,-112.5,0
GRID,36016,,0,-112.5,0
GRID,36017,,40,-112.5,0
GRID,36018,,80,-112.5,0
GRID,36019,,120,-112.5,0
$ ... 160 like lines cut
$ CASE TC036_BASE
$ ===============
$HMNAME COMP 56000 "TC036_BASE"
$HMCOMP ID 56000
CQUAD4,46000,66000,36000,36001,36012,36011
CQUAD4,46001,66000,36001,36002,36013,36012
CQUAD4,46002,66000,36002,36003,36014,36013
CQUAD4,46003,66000,36003,36004,36015,36014
CQUAD4,46004,66000,36004,36005,36016,36015
CQUAD4,46005,66000,36005,36006,36017,36016
CQUAD4,46006,66000,36006,36007,36018,36017
CQUAD4,46007,66000,36007,36008,36019,36018
CQUAD4,46008,66000,36008,36009,36020,36019
CQUAD4,46009,66000,36009,36010,36021,36020
CQUAD4,46010,66000,36011,36012,36023,36022
CQUAD4,46011,66000,36012,36013,36024,36023
CQUAD4,46012,66000,36013,36014,36025,36024
CQUAD4,46013,66000,36014,36015,36026,36025
CQUAD4,46014,66000,36015,36016,36027,36026
CQUAD4,46015,66000,36016,36017,36028,36027
CQUAD4,46016,66000,36017,36018,36029,36028
CQUAD4,46017,66000,36018,36019,36030,36029
CQUAD4,46018,66000,36019,36020,36031,36030
CQUAD4,46019,66000,36020,36021,36032,36031
$ ... 60 like lines cut
$ CASE TC036_PATCH
$ ================
$HMNAME COMP 56001 "TC036_PATCH"
$HMCOMP ID 56001
CQUAD4,46080,66001,36099,36100,36109,36108
CQUAD4,46081,66001,36100,36101,36110,36109
CQUAD4,46082,66001,36101,36102,36111,36110
CQUAD4,46083,66001,36102,36103,36112,36111
CQUAD4,46084,66001,36103,36104,36113,36112
CQUAD4,46085,66001,36104,36105,36114,36113
CQUAD4,46086,66001,36105,36106,36115,36114
CQUAD4,46087,66001,36106,36107,36116,36115
CQUAD4,46088,66001,36108,36109,36118,36117
CQUAD4,46089,66001,36109,36110,36119,36118
CQUAD4,46090,66001,36110,36111,36120,36119
CQUAD4,46091,66001,36111,36112,36121,36120
CQUAD4,46092,66001,36112,36113,36122,36121
CQUAD4,46093,66001,36113,36114,36123,36122
CQUAD4,46094,66001,36114,36115,36124,36123
CQUAD4,46095,66001,36115,36116,36125,36124
CQUAD4,46096,66001,36117,36118,36127,36126
CQUAD4,46097,66001,36118,36119,36128,36127
CQUAD4,46098,66001,36123,36124,36133,36132
CQUAD4,46099,66001,36124,36125,36134,36133
$ ... 28 like lines cut
PSHELL,66000,1,10
PSHELL,66001,1,6
MAT1,1,210000,,0.3
ENDDATA
