$ HMWF_OFFLINE_AUTO_SEAM_MODEL
BEGIN BULK
GRID,8000,,0,-100,0
GRID,8001,,19.95,-100,0
GRID,8002,,39.9,-100,0
GRID,8003,,59.85,-100,0
GRID,8004,,79.8,-100,0
GRID,8005,,99.75,-100,0
GRID,8006,,119.7,-100,0
GRID,8007,,139.65,-100,0
GRID,8008,,159.6,-100,0
GRID,8009,,179.55,-100,0
GRID,8010,,199.5,-100,0
GRID,8011,,0,-80,0
GRID,8012,,19.95,-80,0
GRID,8013,,39.9,-80,0
GRID,8014,,59.85,-80,0
GRID,8015,,79.8,-80,0
GRID,8016,,99.75,-80,0
GRID,8017,,119.7,-80,0
GRID,8018,,139.65,-80,0
GRID,8019,,159.6,-80,0
$ ... 563 like lines cut
$ CASE TC008_TGT_B_B
$ ==================
$HMNAME COMP 28000 "TC008_TGT_B_B"
$HMCOMP ID 28000
CQUAD4,18000,38000,8000,8001,8012,8011
CQUAD4,18001,38000,8001,8002,8013,8012
CQUAD4,18002,38000,8002,8003,8014,8013
CQUAD4,18003,38000,8003,8004,8015,8014
CQUAD4,18004,38000,8004,8005,8016,8015
CQUAD4,18005,38000,8005,8006,8017,8016
CQUAD4,18006,38000,8006,8007,8018,8017
CQUAD4,18007,38000,8007,8008,8019,8018
CQUAD4,18008,38000,8008,8009,8020,8019
CQUAD4,18009,38000,8009,8010,8021,8020
CQUAD4,18010,38000,8011,8012,8023,8022
CQUAD4,18011,38000,8012,8013,8024,8023
CQUAD4,18012,38000,8013,8014,8025,8024
CQUAD4,18013,38000,8014,8015,8026,8025
CQUAD4,18014,38000,8015,8016,8027,8026
CQUAD4,18015,38000,8016,8017,8028,8027
CQUAD4,18016,38000,8017,8018,8029,8028
CQUAD4,18017,38000,8018,8019,8030,8029
CQUAD4,18018,38000,8019,8020,8031,8030
CQUAD4,18019,38000,8020,8021,8032,8031
$ ... 80 like lines cut
$ CASE TC008_TGT_B_C
$ ==================
$HMNAME COMP 28001 "TC008_TGT_B_C"
$HMCOMP ID 28001
CQUAD4,18100,38001,8121,8122,8133,8132
CQUAD4,18101,38001,8122,8123,8134,8133
CQUAD4,18102,38001,8123,8124,8135,8134
CQUAD4,18103,38001,8124,8125,8136,8135
CQUAD4,18104,38001,8125,8126,8137,8136
CQUAD4,18105,38001,8126,8127,8138,8137
CQUAD4,18106,38001,8127,8128,8139,8138
CQUAD4,18107,38001,8128,8129,8140,8139
CQUAD4,18108,38001,8129,8130,8141,8140
CQUAD4,18109,38001,8130,8131,8142,8141
CQUAD4,18110,38001,8132,8133,8144,8143
CQUAD4,18111,38001,8133,8134,8145,8144
CQUAD4,18112,38001,8134,8135,8146,8145
CQUAD4,18113,38001,8135,8136,8147,8146
CQUAD4,18114,38001,8136,8137,8148,8147
CQUAD4,18115,38001,8137,8138,8149,8148
CQUAD4,18116,38001,8138,8139,8150,8149
CQUAD4,18117,38001,8139,8140,8151,8150
CQUAD4,18118,38001,8140,8141,8152,8151
CQUAD4,18119,38001,8141,8142,8153,8152
$ ... 80 like lines cut
$ CASE TC008_SRC_WEB
$ ==================
$HMNAME COMP 28002 "TC008_SRC_WEB"
$HMCOMP ID 28002
CQUAD4,18200,38002,8242,8243,8274,8273
CQUAD4,18201,38002,8243,8244,8275,8274
CQUAD4,18202,38002,8244,8245,8276,8275
CQUAD4,18203,38002,8245,8246,8277,8276
CQUAD4,18204,38002,8246,8247,8278,8277
CQUAD4,18205,38002,8247,8248,8279,8278
CQUAD4,18206,38002,8248,8249,8280,8279
CQUAD4,18207,38002,8249,8250,8281,8280
CQUAD4,18208,38002,8250,8251,8282,8281
CQUAD4,18209,38002,8251,8252,8283,8282
CQUAD4,18210,38002,8252,8253,8284,8283
CQUAD4,18211,38002,8253,8254,8285,8284
CQUAD4,18212,38002,8254,8255,8286,8285
CQUAD4,18213,38002,8255,8256,8287,8286
CQUAD4,18214,38002,8256,8257,8288,8287
CQUAD4,18215,38002,8257,8258,8289,8288
CQUAD4,18216,38002,8258,8259,8290,8289
CQUAD4,18217,38002,8259,8260,8291,8290
CQUAD4,18218,38002,8260,8261,8292,8291
CQUAD4,18219,38002,8261,8262,8293,8292
$ ... 280 like lines cut
PSHELL,38000,1,10
PSHELL,38001,1,10
PSHELL,38002,1,6
MAT1,1,210000,,0.3
ENDDATA
