$ HMWF_OFFLINE_AUTO_SEAM_MODEL
BEGIN BULK
GRID,7000,,0,-100,0
GRID,7001,,20,-100,0
GRID,7002,,40,-100,0
GRID,7003,,60,-100,0
GRID,7004,,80,-100,0
GRID,7005,,100,-100,0
GRID,7006,,120,-100,0
GRID,7007,,140,-100,0
GRID,7008,,0,-80,0
GRID,7009,,20,-80,0
GRID,7010,,40,-80,0
GRID,7011,,60,-80,0
GRID,7012,,80,-80,0
GRID,7013,,100,-80,0
GRID,7014,,120,-80,0
GRID,7015,,140,-80,0
GRID,7016,,0,-60,0
GRID,7017,,20,-60,0
GRID,7018,,40,-60,0
GRID,7019,,60,-60,0
$ ... 596 like lines cut
$ CASE TC007_TGT_B_A
$ ==================
$HMNAME COMP 27000 "TC007_TGT_B_A"
$HMCOMP ID 27000
CQUAD4,17000,37000,7000,7001,7009,7008
CQUAD4,17001,37000,7001,7002,7010,7009
CQUAD4,17002,37000,7002,7003,7011,7010
CQUAD4,17003,37000,7003,7004,7012,7011
CQUAD4,17004,37000,7004,7005,7013,7012
CQUAD4,17005,37000,7005,7006,7014,7013
CQUAD4,17006,37000,7006,7007,7015,7014
CQUAD4,17007,37000,7008,7009,7017,7016
CQUAD4,17008,37000,7009,7010,7018,7017
CQUAD4,17009,37000,7010,7011,7019,7018
CQUAD4,17010,37000,7011,7012,7020,7019
CQUAD4,17011,37000,7012,7013,7021,7020
CQUAD4,17012,37000,7013,7014,7022,7021
CQUAD4,17013,37000,7014,7015,7023,7022
CQUAD4,17014,37000,7016,7017,7025,7024
CQUAD4,17015,37000,7017,7018,7026,7025
CQUAD4,17016,37000,7018,7019,7027,7026
CQUAD4,17017,37000,7019,7020,7028,7027
CQUAD4,17018,37000,7020,7021,7029,7028
CQUAD4,17019,37000,7021,7022,7030,7029
$ ... 50 like lines cut
$ CASE TC007_TGT_B_B
$ ==================
$HMNAME COMP 27001 "TC007_TGT_B_B"
$HMCOMP ID 27001
CQUAD4,17070,37001,7088,7089,7096,7095
CQUAD4,17071,37001,7089,7090,7097,7096
CQUAD4,17072,37001,7090,7091,7098,7097
CQUAD4,17073,37001,7091,7092,7099,7098
CQUAD4,17074,37001,7092,7093,7100,7099
CQUAD4,17075,37001,7093,7094,7101,7100
CQUAD4,17076,37001,7095,7096,7103,7102
CQUAD4,17077,37001,7096,7097,7104,7103
CQUAD4,17078,37001,7097,7098,7105,7104
CQUAD4,17079,37001,7098,7099,7106,7105
CQUAD4,17080,37001,7099,7100,7107,7106
CQUAD4,17081,37001,7100,7101,7108,7107
CQUAD4,17082,37001,7102,7103,7110,7109
CQUAD4,17083,37001,7103,7104,7111,7110
CQUAD4,17084,37001,7104,7105,7112,7111
CQUAD4,17085,37001,7105,7106,7113,7112
CQUAD4,17086,37001,7106,7107,7114,7113
CQUAD4,17087,37001,7107,7108,7115,7114
CQUAD4,17088,37001,7109,7110,7117,7116
CQUAD4,17089,37001,7110,7111,7118,7117
$ ... 40 like lines cut
$ CASE TC007_TGT_B_C
$ ==================
$HMNAME COMP 27002 "TC007_TGT_B_C"
$HMCOMP ID 27002
CQUAD4,17130,37002,7165,7166,7174,7173
CQUAD4,17131,37002,7166,7167,7175,7174
CQUAD4,17132,37002,7167,7168,7176,7175
CQUAD4,17133,37002,7168,7169,7177,7176
CQUAD4,17134,37002,7169,7170,7178,7177
CQUAD4,17135,37002,7170,7171,7179,7178
CQUAD4,17136,37002,7171,7172,7180,7179
CQUAD4,17137,37002,7173,7174,7182,7181
CQUAD4,17138,37002,7174,7175,7183,7182
CQUAD4,17139,37002,7175,7176,7184,7183
CQUAD4,17140,37002,7176,7177,7185,7184
CQUAD4,17141,37002,7177,7178,7186,7185
CQUAD4,17142,37002,7178,7179,7187,7186
CQUAD4,17143,37002,7179,7180,7188,7187
CQUAD4,17144,37002,7181,7182,7190,7189
CQUAD4,17145,37002,7182,7183,7191,7190
CQUAD4,17146,37002,7183,7184,7192,7191
CQUAD4,17147,37002,7184,7185,7193,7192
CQUAD4,17148,37002,7185,7186,7194,7193
CQUAD4,17149,37002,7186,7187,7195,7194
$ ... 50 like lines cut
$ CASE TC007_SRC_WEB
$ ==================
$HMNAME COMP 27003 "TC007_SRC_WEB"
$HMCOMP ID 27003
CQUAD4,17200,37003,7253,7254,7287,7286
CQUAD4,17201,37003,7254,7255,7288,7287
CQUAD4,17202,37003,7255,7256,7289,7288
CQUAD4,17203,37003,7256,7257,7290,7289
CQUAD4,17204,37003,7257,7258,7291,7290
CQUAD4,17205,37003,7258,7259,7292,7291
CQUAD4,17206,37003,7259,7260,7293,7292
CQUAD4,17207,37003,7260,7261,7294,7293
CQUAD4,17208,37003,7261,7262,7295,7294
CQUAD4,17209,37003,7262,7263,7296,7295
CQUAD4,17210,37003,7263,7264,7297,7296
CQUAD4,17211,37003,7264,7265,7298,7297
CQUAD4,17212,37003,7265,7266,7299,7298
CQUAD4,17213,37003,7266,7267,7300,7299
CQUAD4,17214,37003,7267,7268,7301,7300
CQUAD4,17215,37003,7268,7269,7302,7301
CQUAD4,17216,37003,7269,7270,7303,7302
CQUAD4,17217,37003,7270,7271,7304,7303
CQUAD4,17218,37003,7271,7272,7305,7304
CQUAD4,17219,37003,7272,7273,7306,7305
$ ... 300 like lines cut
PSHELL,37000,1,10
PSHELL,37001,1,10
PSHELL,37002,1,10
PSHELL,37003,1,6
MAT1,1,210000,,0.3
ENDDATA
