$ HMWF_OFFLINE_AUTO_SEAM_MODEL
BEGIN BULK
GRID,44000,,0,-100,0
GRID,44001,,20,-100,0
GRID,44002,,40,-100,0
GRID,44003,,60,-100,0
GRID,44004,,80,-100,0
GRID,44005,,100,-100,0
GRID,44006,,120,-100,0
GRID,44007,,140,-100,0
GRID,44008,,160,-100,0
GRID,44009,,180,-100,0
GRID,44010,,200,-100,0
GRID,44011,,220,-100,0
GRID,44012,,240,-100,0
GRID,44013,,260,-100,0
GRID,44014,,280,-100,0
GRID,44015,,300,-100,0
GRID,44016,,320,-100,0
GRID,44017,,340,-100,0
GRID,44018,,360,-100,0
GRID,44019,,380,-100,0
$ ... 361 like lines cut
$ CASE TC044_TGT_BASE
$ ===================
$HMNAME COMP 64000 "TC044_TGT_BASE"
$HMCOMP ID 64000
CQUAD4,54000,74000,44000,44001,44022,44021
CQUAD4,54001,74000,44001,44002,44023,44022
CQUAD4,54002,74000,44002,44003,44024,44023
CQUAD4,54003,74000,44003,44004,44025,44024
CQUAD4,54004,74000,44004,44005,44026,44025
CQUAD4,54005,74000,44005,44006,44027,44026
CQUAD4,54006,74000,44006,44007,44028,44027
CQUAD4,54007,74000,44007,44008,44029,44028
CQUAD4,54008,74000,44008,44009,44030,44029
CQUAD4,54009,74000,44009,44010,44031,44030
CQUAD4,54010,74000,44010,44011,44032,44031
CQUAD4,54011,74000,44011,44012,44033,44032
CQUAD4,54012,74000,44012,44013,44034,44033
CQUAD4,54013,74000,44013,44014,44035,44034
CQUAD4,54014,74000,44014,44015,44036,44035
CQUAD4,54015,74000,44015,44016,44037,44036
CQUAD4,54016,74000,44016,44017,44038,44037
CQUAD4,54017,74000,44017,44018,44039,44038
CQUAD4,54018,74000,44018,44019,44040,44039
CQUAD4,54019,74000,44019,44020,44041,44040
$ ... 180 like lines cut
$ CASE TC044_SRC_LAP
$ ==================
$HMNAME COMP 64001 "TC044_SRC_LAP"
$HMCOMP ID 64001
CQUAD4,54200,74001,44231,44232,44247,44246
CQUAD4,54201,74001,44232,44233,44248,44247
CQUAD4,54202,74001,44233,44234,44249,44248
CQUAD4,54203,74001,44234,44235,44250,44249
CQUAD4,54204,74001,44235,44236,44251,44250
CQUAD4,54205,74001,44236,44237,44252,44251
CQUAD4,54206,74001,44237,44238,44253,44252
CQUAD4,54207,74001,44238,44239,44254,44253
CQUAD4,54208,74001,44239,44240,44255,44254
CQUAD4,54209,74001,44240,44241,44256,44255
CQUAD4,54210,74001,44241,44242,44257,44256
CQUAD4,54211,74001,44242,44243,44258,44257
CQUAD4,54212,74001,44243,44244,44259,44258
CQUAD4,54213,74001,44244,44245,44260,44259
CQUAD4,54214,74001,44246,44247,44262,44261
CQUAD4,54215,74001,44247,44248,44263,44262
CQUAD4,54216,74001,44248,44249,44264,44263
CQUAD4,54217,74001,44249,44250,44265,44264
CQUAD4,54218,74001,44250,44251,44266,44265
CQUAD4,54219,74001,44251,44252,44267,44266
$ ... 106 like lines cut
PSHELL,74000,1,10
PSHELL,74001,1,6
MAT1,1,210000,,0.3
ENDDATA
