$ HMWF_OFFLINE_AUTO_SEAM_MODEL
BEGIN BULK
GRID,201000,,0,-150,0
GRID,201001,,20,-150,0
GRID,201002,,40,-150,0
GRID,201003,,60,-150,0
GRID,201004,,80,-150,0
GRID,201005,,100,-150,0
GRID,201006,,120,-150,0
GRID,201007,,140,-150,0
GRID,201008,,160,-150,0
GRID,201009,,180,-150,0
GRID,201010,,200,-150,0
GRID,201011,,220,-150,0
GRID,201012,,240,-150,0
GRID,201013,,260,-150,0
GRID,201014,,280,-150,0
GRID,201015,,300,-150,0
GRID,201016,,320,-150,0
GRID,201017,,340,-150,0
GRID,201018,,360,-150,0
GRID,201019,,380,-150,0
$ ... 8463 like lines cut
$ CASE CM001_BASE_BOTTOM
$ ======================
$HMNAME COMP 2201000 "CM001_BASE_BOTTOM"
$HMCOMP ID 2201000
CQUAD4,1201000,3201000,201000,201001,201032,201031
CQUAD4,1201001,3201000,201001,201002,201033,201032
CQUAD4,1201002,3201000,201002,201003,201034,201033
CQUAD4,1201003,3201000,201003,201004,201035,201034
CQUAD4,1201004,3201000,201004,201005,201036,201035
CQUAD4,1201005,3201000,201005,201006,201037,201036
CQUAD4,1201006,3201000,201006,201007,201038,201037
CQUAD4,1201007,3201000,201007,201008,201039,201038
CQUAD4,1201008,3201000,201008,201009,201040,201039
CQUAD4,1201009,3201000,201009,201010,201041,201040
CQUAD4,1201010,3201000,201010,201011,201042,201041
CQUAD4,1201011,3201000,201011,201012,201043,201042
CQUAD4,1201012,3201000,201012,201013,201044,201043
CQUAD4,1201013,3201000,201013,201014,201045,201044
CQUAD4,1201014,3201000,201014,201015,201046,201045
CQUAD4,1201015,3201000,201015,201016,201047,201046
CQUAD4,1201016,3201000,201016,201017,201048,201047
CQUAD4,1201017,3201000,201017,201018,201049,201048
CQUAD4,1201018,3201000,201018,201019,201050,201049
CQUAD4,1201019,3201000,201019,201020,201051,201050
$ ... 430 like lines cut
$ CASE CM001_BASE_TOP
$ ===================
$HMNAME COMP 2201001 "CM001_BASE_TOP"
$HMCOMP ID 2201001
CQUAD4,1201450,3201001,201496,201497,201528,201527
CQUAD4,1201451,3201001,201497,201498,201529,201528
CQUAD4,1201452,3201001,201498,201499,201530,201529
CQUAD4,1201453,3201001,201499,201500,201531,201530
CQUAD4,1201454,3201001,201500,201501,201532,201531
CQUAD4,1201455,3201001,201501,201502,201533,201532
CQUAD4,1201456,3201001,201502,201503,201534,201533
CQUAD4,1201457,3201001,201503,201504,201535,201534
CQUAD4,1201458,3201001,201504,201505,201536,201535
CQUAD4,1201459,3201001,201505,201506,201537,201536
CQUAD4,1201460,3201001,201506,201507,201538,201537
CQUAD4,1201461,3201001,201507,201508,201539,201538
CQUAD4,1201462,3201001,201508,201509,201540,201539
CQUAD4,1201463,3201001,201509,201510,201541,201540
CQUAD4,1201464,3201001,201510,201511,201542,201541
CQUAD4,1201465,3201001,201511,201512,201543,201542
CQUAD4,1201466,3201001,201512,201513,201544,201543
CQUAD4,1201467,3201001,201513,201514,201545,201544
CQUAD4,1201468,3201001,201514,201515,201546,201545
CQUAD4,1201469,3201001,201515,201516,201547,201546
$ ... 430 like lines cut
$ CASE CM001_SIDE_LEFT
$ ====================
$HMNAME COMP 2201002 "CM001_SIDE_LEFT"
$HMCOMP ID 2201002
CQUAD4,1201900,3201002,201992,201993,202046,202045
CQUAD4,1201901,3201002,201993,201994,202047,202046
CQUAD4,1201902,3201002,201994,201995,202048,202047
CQUAD4,1201903,3201002,201995,201996,202049,202048
CQUAD4,1201904,3201002,201996,201997,202050,202049
CQUAD4,1201905,3201002,201997,201998,202051,202050
CQUAD4,1201906,3201002,201998,201999,202052,202051
CQUAD4,1201907,3201002,201999,202000,202053,202052
CQUAD4,1201908,3201002,202000,202001,202054,202053
CQUAD4,1201909,3201002,202001,202002,202055,202054
CQUAD4,1201910,3201002,202002,202003,202056,202055
CQUAD4,1201911,3201002,202003,202004,202057,202056
CQUAD4,1201912,3201002,202004,202005,202058,202057
CQUAD4,1201913,3201002,202005,202006,202059,202058
CQUAD4,1201914,3201002,202006,202007,202060,202059
CQUAD4,1201915,3201002,202007,202008,202061,202060
CQUAD4,1201916,3201002,202008,202009,202062,202061
CQUAD4,1201917,3201002,202009,202010,202063,202062
CQUAD4,1201918,3201002,202010,202011,202064,202063
CQUAD4,1201919,3201002,202011,202012,202065,202064
$ ... 1488 like lines cut
$ CASE CM001_SIDE_RIGHT
$ =====================
$HMNAME COMP 2201003 "CM001_SIDE_RIGHT"
$HMCOMP ID 2201003
CQUAD4,1203408,3201003,203582,203583,203636,203635
CQUAD4,1203409,3201003,203583,203584,203637,203636
CQUAD4,1203410,3201003,203584,203585,203638,203637
CQUAD4,1203411,3201003,203585,203586,203639,203638
CQUAD4,1203412,3201003,203586,203587,203640,203639
CQUAD4,1203413,3201003,203587,203588,203641,203640
CQUAD4,1203414,3201003,203588,203589,203642,203641
CQUAD4,1203415,3201003,203589,203590,203643,203642
CQUAD4,1203416,3201003,203590,203591,203644,203643
CQUAD4,1203417,3201003,203591,203592,203645,203644
CQUAD4,1203418,3201003,203592,203593,203646,203645
CQUAD4,1203419,3201003,203593,203594,203647,203646
CQUAD4,1203420,3201003,203594,203595,203648,203647
CQUAD4,1203421,3201003,203595,203596,203649,203648
CQUAD4,1203422,3201003,203596,203597,203650,203649
CQUAD4,1203423,3201003,203597,203598,203651,203650
CQUAD4,1203424,3201003,203598,203599,203652,203651
CQUAD4,1203425,3201003,203599,203600,203653,203652
CQUAD4,1203426,3201003,203600,203601,203654,203653
CQUAD4,1203427,3201003,203601,203602,203655,203654
$ ... 1488 like lines cut
$ CASE CM001_DIA_1
$ ================
$HMNAME COMP 2201004 "CM001_DIA_1"
$HMCOMP ID 2201004
CQUAD4,1204916,3201004,205172,205173,205202,205201
CQUAD4,1204917,3201004,205173,205174,205203,205202
CQUAD4,1204918,3201004,205174,205175,205204,205203
CQUAD4,1204919,3201004,205175,205176,205205,205204
CQUAD4,1204920,3201004,205176,205177,205206,205205
CQUAD4,1204921,3201004,205177,205178,205207,205206
CQUAD4,1204922,3201004,205178,205179,205208,205207
CQUAD4,1204923,3201004,205179,205180,205209,205208
CQUAD4,1204924,3201004,205180,205181,205210,205209
CQUAD4,1204925,3201004,205181,205182,205211,205210
CQUAD4,1204926,3201004,205182,205183,205212,205211
CQUAD4,1204927,3201004,205183,205184,205213,205212
CQUAD4,1204928,3201004,205184,205185,205214,205213
CQUAD4,1204929,3201004,205185,205186,205215,205214
CQUAD4,1204930,3201004,205186,205187,205216,205215
CQUAD4,1204931,3201004,205187,205188,205217,205216
CQUAD4,1204932,3201004,205188,205189,205218,205217
CQUAD4,1204933,3201004,205189,205190,205219,205218
CQUAD4,1204934,3201004,205190,205191,205220,205219
CQUAD4,1204935,3201004,205191,205192,205221,205220
$ ... 792 like lines cut
$ CASE CM001_DIA_2
$ ================
$HMNAME COMP 2201005 "CM001_DIA_2"
$HMCOMP ID 2201005
CQUAD4,1205728,3201005,206042,206043,206072,206071
CQUAD4,1205729,3201005,206043,206044,206073,206072
CQUAD4,1205730,3201005,206044,206045,206074,206073
CQUAD4,1205731,3201005,206045,206046,206075,206074
CQUAD4,1205732,3201005,206046,206047,206076,206075
CQUAD4,1205733,3201005,206047,206048,206077,206076
CQUAD4,1205734,3201005,206048,206049,206078,206077
CQUAD4,1205735,3201005,206049,206050,206079,206078
CQUAD4,1205736,3201005,206050,206051,206080,206079
CQUAD4,1205737,3201005,206051,206052,206081,206080
CQUAD4,1205738,3201005,206052,206053,206082,206081
CQUAD4,1205739,3201005,206053,206054,206083,206082
CQUAD4,1205740,3201005,206054,206055,206084,206083
CQUAD4,1205741,3201005,206055,206056,206085,206084
CQUAD4,1205742,3201005,206056,206057,206086,206085
CQUAD4,1205743,3201005,206057,206058,206087,206086
CQUAD4,1205744,3201005,206058,206059,206088,206087
CQUAD4,1205745,3201005,206059,206060,206089,206088
CQUAD4,1205746,3201005,206060,206061,206090,206089
CQUAD4,1205747,3201005,206061,206062,206091,206090
$ ... 720 like lines cut
$ CASE CM001_DIA_3
$ ================
$HMNAME COMP 2201006 "CM001_DIA_3"
$HMCOMP ID 2201006
CQUAD4,1206468,3201006,206912,206913,206942,206941
CQUAD4,1206469,3201006,206913,206914,206943,206942
CQUAD4,1206470,3201006,206914,206915,206944,206943
CQUAD4,1206471,3201006,206915,206916,206945,206944
CQUAD4,1206472,3201006,206916,206917,206946,206945
CQUAD4,1206473,3201006,206917,206918,206947,206946
CQUAD4,1206474,3201006,206918,206919,206948,206947
CQUAD4,1206475,3201006,206919,206920,206949,206948
CQUAD4,1206476,3201006,206920,206921,206950,206949
CQUAD4,1206477,3201006,206921,206922,206951,206950
CQUAD4,1206478,3201006,206922,206923,206952,206951
CQUAD4,1206479,3201006,206923,206924,206953,206952
CQUAD4,1206480,3201006,206924,206925,206954,206953
CQUAD4,1206481,3201006,206925,206926,206955,206954
CQUAD4,1206482,3201006,206926,206927,206956,206955
CQUAD4,1206483,3201006,206927,206928,206957,206956
CQUAD4,1206484,3201006,206928,206929,206958,206957
CQUAD4,1206485,3201006,206929,206930,206959,206958
CQUAD4,1206486,3201006,206930,206931,206960,206959
CQUAD4,1206487,3201006,206931,206932,206961,206960
$ ... 764 like lines cut
$ CASE CM001_DIA_4
$ ================
$HMNAME COMP 2201007 "CM001_DIA_4"
$HMCOMP ID 2201007
CQUAD4,1207252,3201007,207753,207754,207783,207782
CQUAD4,1207253,3201007,207754,207755,207784,207783
CQUAD4,1207254,3201007,207755,207756,207785,207784
CQUAD4,1207255,3201007,207756,207757,207786,207785
CQUAD4,1207256,3201007,207757,207758,207787,207786
CQUAD4,1207257,3201007,207758,207759,207788,207787
CQUAD4,1207258,3201007,207759,207760,207789,207788
CQUAD4,1207259,3201007,207760,207761,207790,207789
CQUAD4,1207260,3201007,207761,207762,207791,207790
CQUAD4,1207261,3201007,207762,207763,207792,207791
CQUAD4,1207262,3201007,207763,207764,207793,207792
CQUAD4,1207263,3201007,207764,207765,207794,207793
CQUAD4,1207264,3201007,207765,207766,207795,207794
CQUAD4,1207265,3201007,207766,207767,207796,207795
CQUAD4,1207266,3201007,207767,207768,207797,207796
CQUAD4,1207267,3201007,207768,207769,207798,207797
CQUAD4,1207268,3201007,207769,207770,207799,207798
CQUAD4,1207269,3201007,207770,207771,207800,207799
CQUAD4,1207270,3201007,207771,207772,207801,207800
CQUAD4,1207271,3201007,207772,207773,207802,207801
$ ... 540 like lines cut
$ CASE CM001_DIA_5
$ ================
$HMNAME COMP 2201008 "CM001_DIA_5"
$HMCOMP ID 2201008
CQUAD4,1207812,3201008,208362,208363,208392,208391
CQUAD4,1207813,3201008,208363,208364,208393,208392
CQUAD4,1207814,3201008,208364,208365,208394,208393
CQUAD4,1207815,3201008,208365,208366,208395,208394
CQUAD4,1207816,3201008,208366,208367,208396,208395
CQUAD4,1207817,3201008,208367,208368,208397,208396
CQUAD4,1207818,3201008,208368,208369,208398,208397
CQUAD4,1207819,3201008,208369,208370,208399,208398
CQUAD4,1207820,3201008,208370,208371,208400,208399
CQUAD4,1207821,3201008,208371,208372,208401,208400
CQUAD4,1207822,3201008,208372,208373,208402,208401
CQUAD4,1207823,3201008,208373,208374,208403,208402
CQUAD4,1207824,3201008,208374,208375,208404,208403
CQUAD4,1207825,3201008,208375,208376,208405,208404
CQUAD4,1207826,3201008,208376,208377,208406,208405
CQUAD4,1207827,3201008,208377,208378,208407,208406
CQUAD4,1207828,3201008,208378,208379,208408,208407
CQUAD4,1207829,3201008,208379,208380,208409,208408
CQUAD4,1207830,3201008,208380,208381,208410,208409
CQUAD4,1207831,3201008,208381,208382,208411,208410
$ ... 792 like lines cut
$ CASE CM001_STIFF_LONG
$ =====================
$HMNAME COMP 2201009 "CM001_STIFF_LONG"
$HMCOMP ID 2201009
CQUAD4,1208624,3201009,209232,209233,209242,209241
CQUAD4,1208625,3201009,209233,209234,209243,209242
CQUAD4,1208626,3201009,209234,209235,209244,209243
CQUAD4,1208627,3201009,209235,209236,209245,209244
CQUAD4,1208628,3201009,209236,209237,209246,209245
CQUAD4,1208629,3201009,209237,209238,209247,209246
CQUAD4,1208630,3201009,209238,209239,209248,209247
CQUAD4,1208631,3201009,209239,209240,209249,209248
CQUAD4,1208632,3201009,209241,209242,209251,209250
CQUAD4,1208633,3201009,209242,209243,209252,209251
CQUAD4,1208634,3201009,209243,209244,209253,209252
CQUAD4,1208635,3201009,209244,209245,209254,209253
CQUAD4,1208636,3201009,209245,209246,209255,209254
CQUAD4,1208637,3201009,209246,209247,209256,209255
CQUAD4,1208638,3201009,209247,209248,209257,209256
CQUAD4,1208639,3201009,209248,209249,209258,209257
CQUAD4,1208640,3201009,209250,209251,209260,209259
CQUAD4,1208641,3201009,209251,209252,209261,209260
CQUAD4,1208642,3201009,209252,209253,209262,209261
CQUAD4,1208643,3201009,209253,209254,209263,209262
$ ... 92 like lines cut
$ CASE CM001_GUSSET_ROOF
$ ======================
$HMNAME COMP 2201010 "CM001_GUSSET_ROOF"
$HMCOMP ID 2201010
CQUAD4,1208736,3201010,209367,209368,209379,209378
CQUAD4,1208737,3201010,209368,209369,209380,209379
CQUAD4,1208738,3201010,209369,209370,209381,209380
CQUAD4,1208739,3201010,209370,209371,209382,209381
CQUAD4,1208740,3201010,209371,209372,209383,209382
CQUAD4,1208741,3201010,209372,209373,209384,209383
CQUAD4,1208742,3201010,209373,209374,209385,209384
CQUAD4,1208743,3201010,209374,209375,209386,209385
CQUAD4,1208744,3201010,209375,209376,209387,209386
CQUAD4,1208745,3201010,209376,209377,209388,209387
CQUAD4,1208746,3201010,209378,209379,209390,209389
CQUAD4,1208747,3201010,209379,209380,209391,209390
CQUAD4,1208748,3201010,209380,209381,209392,209391
CQUAD4,1208749,3201010,209381,209382,209393,209392
CQUAD4,1208750,3201010,209382,209383,209394,209393
CQUAD4,1208751,3201010,209383,209384,209395,209394
CQUAD4,1208752,3201010,209384,209385,209396,209395
CQUAD4,1208753,3201010,209385,209386,209397,209396
CQUAD4,1208754,3201010,209386,209387,209398,209397
CQUAD4,1208755,3201010,209387,209388,209399,209398
$ ... 50 like lines cut
$ CASE CM001_BRACKET
$ ==================
$HMNAME COMP 2201011 "CM001_BRACKET"
$HMCOMP ID 2201011
CQUAD4,1208806,3201011,209455,209456,209463,209462
CQUAD4,1208807,3201011,209456,209457,209464,209463
CQUAD4,1208808,3201011,209457,209458,209465,209464
CQUAD4,1208809,3201011,209458,209459,209466,209465
CQUAD4,1208810,3201011,209459,209460,209467,209466
CQUAD4,1208811,3201011,209460,209461,209468,209467
CQUAD4,1208812,3201011,209462,209463,209470,209469
CQUAD4,1208813,3201011,209463,209464,209471,209470
CQUAD4,1208814,3201011,209464,209465,209472,209471
CQUAD4,1208815,3201011,209465,209466,209473,209472
CQUAD4,1208816,3201011,209466,209467,209474,209473
CQUAD4,1208817,3201011,209467,209468,209475,209474
CQUAD4,1208818,3201011,209469,209470,209477,209476
CQUAD4,1208819,3201011,209470,209471,209478,209477
CQUAD4,1208820,3201011,209471,209472,209479,209478
CQUAD4,1208821,3201011,209472,209473,209480,209479
CQUAD4,1208822,3201011,209473,209474,209481,209480
CQUAD4,1208823,3201011,209474,209475,209482,209481
PSHELL,3201000,1,10
PSHELL,3201001,1,8
PSHELL,3201002,1,6
PSHELL,3201003,1,6
PSHELL,3201004,1,6
PSHELL,3201005,1,6
PSHELL,3201006,1,6
PSHELL,3201007,1,6
PSHELL,3201008,1,6
PSHELL,3201009,1,6
PSHELL,3201010,1,6
PSHELL,3201011,1,4
MAT1,1,210000,,0.3
ENDDATA
