$ HMWF_OFFLINE_AUTO_SEAM_MODEL
BEGIN BULK
GRID,37000,,-200,-150,0
GRID,37001,,-160,-150,0
GRID,37002,,-120,-150,0
GRID,37003,,-80,-150,0
GRID,37004,,-40,-150,0
GRID,37005,,0,-150,0
GRID,37006,,40,-150,0
GRID,37007,,80,-150,0
GRID,37008,,120,-150,0
GRID,37009,,160,-150,0
GRID,37010,,200,-150,0
GRID,37011,,-200,-112.5,0
GRID,37012,,-160,-112.5,0
GRID,37013,,-120,-112.5,0
GRID,37014,,-80,-112.5,0
GRID,37015,,-40,-112.5,0
GRID,37016,,0,-112.5,0
GRID,37017,,40,-112.5,0
GRID,37018,,80,-112.5,0
GRID,37019,,120,-112.5,0
$ ... 99 like lines cut
$ CASE TC037_BASE
$ ===============
$HMNAME COMP 57000 "TC037_BASE"
$HMCOMP ID 57000
CQUAD4,47000,67000,37000,37001,37012,37011
CQUAD4,47001,67000,37001,37002,37013,37012
CQUAD4,47002,67000,37002,37003,37014,37013
CQUAD4,47003,67000,37003,37004,37015,37014
CQUAD4,47004,67000,37004,37005,37016,37015
CQUAD4,47005,67000,37005,37006,37017,37016
CQUAD4,47006,67000,37006,37007,37018,37017
CQUAD4,47007,67000,37007,37008,37019,37018
CQUAD4,47008,67000,37008,37009,37020,37019
CQUAD4,47009,67000,37009,37010,37021,37020
CQUAD4,47010,67000,37011,37012,37023,37022
CQUAD4,47011,67000,37012,37013,37024,37023
CQUAD4,47012,67000,37013,37014,37025,37024
CQUAD4,47013,67000,37014,37015,37026,37025
CQUAD4,47014,67000,37015,37016,37027,37026
CQUAD4,47015,67000,37016,37017,37028,37027
CQUAD4,47016,67000,37017,37018,37029,37028
CQUAD4,47017,67000,37018,37019,37030,37029
CQUAD4,47018,67000,37019,37020,37031,37030
CQUAD4,47019,67000,37020,37021,37032,37031
$ ... 60 like lines cut
$ CASE TC037_TILT
$ ===============
$HMNAME COMP 57001 "TC037_TILT"
$HMCOMP ID 57001
CQUAD4,47080,67001,37099,37100,37104,37103
CQUAD4,47081,67001,37100,37101,37105,37104
CQUAD4,47082,67001,37101,37102,37106,37105
CQUAD4,47083,67001,37103,37104,37108,37107
CQUAD4,47084,67001,37104,37105,37109,37108
CQUAD4,47085,67001,37105,37106,37110,37109
CQUAD4,47086,67001,37107,37108,37112,37111
CQUAD4,47087,67001,37108,37109,37113,37112
CQUAD4,47088,67001,37109,37110,37114,37113
CQUAD4,47089,67001,37111,37112,37116,37115
CQUAD4,47090,67001,37112,37113,37117,37116
CQUAD4,47091,67001,37113,37114,37118,37117
PSHELL,67000,1,10
PSHELL,67001,1,6
MAT1,1,210000,,0.3
ENDDATA
