$ HMWF_OFFLINE_AUTO_SEAM_MODEL
BEGIN BULK
GRID,1,,0,0,0
GRID,2,,10,0,0
GRID,3,,20,0,0
GRID,4,,30,0,0
GRID,5,,0,10,0
GRID,6,,10,10,0
GRID,7,,20,10,0
GRID,8,,30,10,0
GRID,9,,0,20,0
GRID,10,,10,20,0
GRID,11,,20,20,0
GRID,12,,30,20,0
GRID,13,,0,30,0
GRID,14,,10,30,0
GRID,15,,20,30,0
GRID,16,,30,30,0
GRID,17,,200,0,0
GRID,18,,210,0,0
GRID,19,,220,0,0
GRID,20,,230,0,0
$ ... 12 like lines cut
$HMNAME COMP 1 "FAR_A_T1"
$HMCOMP ID 1
CQUAD4,1,1,1,2,6,5
CQUAD4,2,1,2,3,7,6
CQUAD4,3,1,3,4,8,7
CQUAD4,4,1,5,6,10,9
CQUAD4,5,1,6,7,11,10
CQUAD4,6,1,7,8,12,11
CQUAD4,7,1,9,10,14,13
CQUAD4,8,1,10,11,15,14
CQUAD4,9,1,11,12,16,15
$HMNAME COMP 2 "FAR_B_T1"
$HMCOMP ID 2
CQUAD4,10,2,17,18,22,21
CQUAD4,11,2,18,19,23,22
CQUAD4,12,2,19,20,24,23
CQUAD4,13,2,21,22,26,25
CQUAD4,14,2,22,23,27,26
CQUAD4,15,2,23,24,28,27
CQUAD4,16,2,25,26,30,29
CQUAD4,17,2,26,27,31,30
CQUAD4,18,2,27,28,32,31
PSHELL,1,1,1
PSHELL,2,1,1
MAT1,1,210000,,0.3
ENDDATA
