$ HMWF_OFFLINE_AUTO_SEAM_MODEL
BEGIN BULK
GRID,9000,,0,-100,0
GRID,9001,,20,-100,0
GRID,9002,,40,-100,0
GRID,9003,,60,-100,0
GRID,9004,,80,-100,0
GRID,9005,,100,-100,0
GRID,9006,,120,-100,0
GRID,9007,,140,-100,0
GRID,9008,,160,-100,0
GRID,9009,,180,-100,0
GRID,9010,,0,-80,0
GRID,9011,,20,-80,0
GRID,9012,,40,-80,0
GRID,9013,,60,-80,0
GRID,9014,,80,-80,0
GRID,9015,,100,-80,0
GRID,9016,,120,-80,0
GRID,9017,,140,-80,0
GRID,9018,,160,-80,0
GRID,9019,,180,-80,0
$ ... 541 like lines cut
$ CASE TC009_TGT_B_B
$ ==================
$HMNAME COMP 29000 "TC009_TGT_B_B"
$HMCOMP ID 29000
CQUAD4,19000,39000,9000,9001,9011,9010
CQUAD4,19001,39000,9001,9002,9012,9011
CQUAD4,19002,39000,9002,9003,9013,9012
CQUAD4,19003,39000,9003,9004,9014,9013
CQUAD4,19004,39000,9004,9005,9015,9014
CQUAD4,19005,39000,9005,9006,9016,9015
CQUAD4,19006,39000,9006,9007,9017,9016
CQUAD4,19007,39000,9007,9008,9018,9017
CQUAD4,19008,39000,9008,9009,9019,9018
CQUAD4,19009,39000,9010,9011,9021,9020
CQUAD4,19010,39000,9011,9012,9022,9021
CQUAD4,19011,39000,9012,9013,9023,9022
CQUAD4,19012,39000,9013,9014,9024,9023
CQUAD4,19013,39000,9014,9015,9025,9024
CQUAD4,19014,39000,9015,9016,9026,9025
CQUAD4,19015,39000,9016,9017,9027,9026
CQUAD4,19016,39000,9017,9018,9028,9027
CQUAD4,19017,39000,9018,9019,9029,9028
CQUAD4,19018,39000,9020,9021,9031,9030
CQUAD4,19019,39000,9021,9022,9032,9031
$ ... 70 like lines cut
$ CASE TC009_TGT_B_C
$ ==================
$HMNAME COMP 29001 "TC009_TGT_B_C"
$HMCOMP ID 29001
CQUAD4,19090,39001,9110,9111,9121,9120
CQUAD4,19091,39001,9111,9112,9122,9121
CQUAD4,19092,39001,9112,9113,9123,9122
CQUAD4,19093,39001,9113,9114,9124,9123
CQUAD4,19094,39001,9114,9115,9125,9124
CQUAD4,19095,39001,9115,9116,9126,9125
CQUAD4,19096,39001,9116,9117,9127,9126
CQUAD4,19097,39001,9117,9118,9128,9127
CQUAD4,19098,39001,9118,9119,9129,9128
CQUAD4,19099,39001,9120,9121,9131,9130
CQUAD4,19100,39001,9121,9122,9132,9131
CQUAD4,19101,39001,9122,9123,9133,9132
CQUAD4,19102,39001,9123,9124,9134,9133
CQUAD4,19103,39001,9124,9125,9135,9134
CQUAD4,19104,39001,9125,9126,9136,9135
CQUAD4,19105,39001,9126,9127,9137,9136
CQUAD4,19106,39001,9127,9128,9138,9137
CQUAD4,19107,39001,9128,9129,9139,9138
CQUAD4,19108,39001,9130,9131,9141,9140
CQUAD4,19109,39001,9131,9132,9142,9141
$ ... 70 like lines cut
$ CASE TC009_SRC_WEB
$ ==================
$HMNAME COMP 29002 "TC009_SRC_WEB"
$HMCOMP ID 29002
CQUAD4,19180,39002,9220,9221,9252,9251
CQUAD4,19181,39002,9221,9222,9253,9252
CQUAD4,19182,39002,9222,9223,9254,9253
CQUAD4,19183,39002,9223,9224,9255,9254
CQUAD4,19184,39002,9224,9225,9256,9255
CQUAD4,19185,39002,9225,9226,9257,9256
CQUAD4,19186,39002,9226,9227,9258,9257
CQUAD4,19187,39002,9227,9228,9259,9258
CQUAD4,19188,39002,9228,9229,9260,9259
CQUAD4,19189,39002,9229,9230,9261,9260
CQUAD4,19190,39002,9230,9231,9262,9261
CQUAD4,19191,39002,9231,9232,9263,9262
CQUAD4,19192,39002,9232,9233,9264,9263
CQUAD4,19193,39002,9233,9234,9265,9264
CQUAD4,19194,39002,9234,9235,9266,9265
CQUAD4,19195,39002,9235,9236,9267,9266
CQUAD4,19196,39002,9236,9237,9268,9267
CQUAD4,19197,39002,9237,9238,9269,9268
CQUAD4,19198,39002,9238,9239,9270,9269
CQUAD4,19199,39002,9239,9240,9271,9270
$ ... 280 like lines cut
PSHELL,39000,1,10
PSHELL,39001,1,10
PSHELL,39002,1,6
MAT1,1,210000,,0.3
ENDDATA
