$ HMWF_OFFLINE_AUTO_SEAM_MODEL
BEGIN BULK
GRID,1,,0,0,0
GRID,2,,10,0,0
GRID,3,,20,0,0
GRID,4,,30,0,0
GRID,5,,40,0,0
GRID,6,,50,0,0
GRID,7,,60,0,0
GRID,8,,70,0,0
GRID,9,,80,0,0
GRID,10,,90,0,0
GRID,11,,100,0,0
GRID,12,,110,0,0
GRID,13,,120,0,0
GRID,14,,130,0,0
GRID,15,,140,0,0
GRID,16,,150,0,0
GRID,17,,160,0,0
GRID,18,,170,0,0
GRID,19,,180,0,0
GRID,20,,190,0,0
$ ... 3566 like lines cut
$ CASE TC027_SRC_PLATE
$ ====================
$HMNAME COMP 1 "TC027_SRC_PLATE"
$HMCOMP ID 1
CQUAD4,1,1,1,2,43,42
CQUAD4,2,1,2,3,44,43
CQUAD4,3,1,3,4,45,44
CQUAD4,4,1,4,5,46,45
CQUAD4,5,1,5,6,47,46
CQUAD4,6,1,6,7,48,47
CQUAD4,7,1,7,8,49,48
CQUAD4,8,1,8,9,50,49
CQUAD4,9,1,9,10,51,50
CQUAD4,10,1,10,11,52,51
CQUAD4,11,1,11,12,53,52
CQUAD4,12,1,12,13,54,53
CQUAD4,13,1,13,14,55,54
CQUAD4,14,1,14,15,56,55
CQUAD4,15,1,15,16,57,56
CQUAD4,16,1,16,17,58,57
CQUAD4,17,1,17,18,59,58
CQUAD4,18,1,18,19,60,59
CQUAD4,19,1,19,20,61,60
CQUAD4,20,1,20,21,62,61
$ ... 908 like lines cut
$ CASE TC027_TGT_SHELF
$ ====================
$HMNAME COMP 2 "TC027_TGT_SHELF"
$HMCOMP ID 2
CQUAD4,929,2,1026,1027,1036,1035
CQUAD4,930,2,1027,1028,1037,1036
CQUAD4,931,2,1028,1029,1038,1037
CQUAD4,932,2,1029,1030,1039,1038
CQUAD4,933,2,1030,1031,1040,1039
CQUAD4,934,2,1031,1032,1041,1040
CQUAD4,935,2,1032,1033,1042,1041
CQUAD4,936,2,1033,1034,1043,1042
CQUAD4,937,2,1035,1036,1045,1044
CQUAD4,938,2,1036,1037,1046,1045
CQUAD4,939,2,1037,1038,1047,1046
CQUAD4,940,2,1038,1039,1048,1047
CQUAD4,941,2,1039,1040,1049,1048
CQUAD4,942,2,1040,1041,1050,1049
CQUAD4,943,2,1041,1042,1051,1050
CQUAD4,944,2,1042,1043,1052,1051
CQUAD4,945,2,1044,1045,1054,1053
CQUAD4,946,2,1045,1046,1055,1054
CQUAD4,947,2,1046,1047,1056,1055
CQUAD4,948,2,1047,1048,1057,1056
$ ... 60 like lines cut
$ CASE TC046_SHEET_LEFT
$ =====================
$HMNAME COMP 67 "TC046_SHEET_LEFT"
$HMCOMP ID 67
CQUAD4,1265,67,1381,1382,1393,1392
CQUAD4,1266,67,1382,1383,1394,1393
CQUAD4,1267,67,1383,1384,1395,1394
CQUAD4,1268,67,1384,1385,1396,1395
CQUAD4,1269,67,1385,1386,1397,1396
CQUAD4,1270,67,1386,1387,1398,1397
CQUAD4,1271,67,1387,1388,1399,1398
CQUAD4,1272,67,1388,1389,1400,1399
CQUAD4,1273,67,1389,1390,1401,1400
CQUAD4,1274,67,1390,1391,1402,1401
CQUAD4,1275,67,1392,1393,1404,1403
CQUAD4,1276,67,1393,1394,1405,1404
CQUAD4,1277,67,1394,1395,1406,1405
CQUAD4,1278,67,1395,1396,1407,1406
CQUAD4,1279,67,1396,1397,1408,1407
CQUAD4,1280,67,1397,1398,1409,1408
CQUAD4,1281,67,1398,1399,1410,1409
CQUAD4,1282,67,1399,1400,1411,1410
CQUAD4,1283,67,1400,1401,1412,1411
CQUAD4,1284,67,1401,1402,1413,1412
$ ... 80 like lines cut
$ CASE TC046_SHEET_RIGHT
$ ======================
$HMNAME COMP 68 "TC046_SHEET_RIGHT"
$HMCOMP ID 68
CQUAD4,1365,68,1502,1503,1514,1513
CQUAD4,1366,68,1503,1504,1515,1514
CQUAD4,1367,68,1504,1505,1516,1515
CQUAD4,1368,68,1505,1506,1517,1516
CQUAD4,1369,68,1506,1507,1518,1517
CQUAD4,1370,68,1507,1508,1519,1518
CQUAD4,1371,68,1508,1509,1520,1519
CQUAD4,1372,68,1509,1510,1521,1520
CQUAD4,1373,68,1510,1511,1522,1521
CQUAD4,1374,68,1511,1512,1523,1522
CQUAD4,1375,68,1513,1514,1525,1524
CQUAD4,1376,68,1514,1515,1526,1525
CQUAD4,1377,68,1515,1516,1527,1526
CQUAD4,1378,68,1516,1517,1528,1527
CQUAD4,1379,68,1517,1518,1529,1528
CQUAD4,1380,68,1518,1519,1530,1529
CQUAD4,1381,68,1519,1520,1531,1530
CQUAD4,1382,68,1520,1521,1532,1531
CQUAD4,1383,68,1521,1522,1533,1532
CQUAD4,1384,68,1522,1523,1534,1533
$ ... 80 like lines cut
$ CASE TC042_TGT_BASE
$ ===================
$HMNAME COMP 133 "TC042_TGT_BASE"
$HMCOMP ID 133
CQUAD4,1721,133,1879,1880,1901,1900
CQUAD4,1722,133,1880,1881,1902,1901
CQUAD4,1723,133,1881,1882,1903,1902
CQUAD4,1724,133,1882,1883,1904,1903
CQUAD4,1725,133,1883,1884,1905,1904
CQUAD4,1726,133,1884,1885,1906,1905
CQUAD4,1727,133,1885,1886,1907,1906
CQUAD4,1728,133,1886,1887,1908,1907
CQUAD4,1729,133,1887,1888,1909,1908
CQUAD4,1730,133,1888,1889,1910,1909
CQUAD4,1731,133,1889,1890,1911,1910
CQUAD4,1732,133,1890,1891,1912,1911
CQUAD4,1733,133,1891,1892,1913,1912
CQUAD4,1734,133,1892,1893,1914,1913
CQUAD4,1735,133,1893,1894,1915,1914
CQUAD4,1736,133,1894,1895,1916,1915
CQUAD4,1737,133,1895,1896,1917,1916
CQUAD4,1738,133,1896,1897,1918,1917
CQUAD4,1739,133,1897,1898,1919,1918
CQUAD4,1740,133,1898,1899,1920,1919
$ ... 220 like lines cut
$ CASE TC042_SRC_LONG
$ ===================
$HMNAME COMP 134 "TC042_SRC_LONG"
$HMCOMP ID 134
CQUAD4,1961,134,2152,2153,2182,2181
CQUAD4,1962,134,2153,2154,2183,2182
CQUAD4,1963,134,2154,2155,2184,2183
CQUAD4,1964,134,2155,2156,2185,2184
CQUAD4,1965,134,2156,2157,2186,2185
CQUAD4,1966,134,2157,2158,2187,2186
CQUAD4,1967,134,2158,2159,2188,2187
CQUAD4,1968,134,2159,2160,2189,2188
CQUAD4,1969,134,2160,2161,2190,2189
CQUAD4,1970,134,2161,2162,2191,2190
CQUAD4,1971,134,2162,2163,2192,2191
CQUAD4,1972,134,2163,2164,2193,2192
CQUAD4,1973,134,2164,2165,2194,2193
CQUAD4,1974,134,2165,2166,2195,2194
CQUAD4,1975,134,2166,2167,2196,2195
CQUAD4,1976,134,2167,2168,2197,2196
CQUAD4,1977,134,2168,2169,2198,2197
CQUAD4,1978,134,2169,2170,2199,2198
CQUAD4,1979,134,2170,2171,2200,2199
CQUAD4,1980,134,2171,2172,2201,2200
$ ... 8 like lines cut
$ CASE TC042_SRC_CROSS
$ ====================
$HMNAME COMP 135 "TC042_SRC_CROSS"
$HMCOMP ID 135
CQUAD4,1989,135,2210,2211,2221,2220
CQUAD4,1990,135,2211,2212,2222,2221
CQUAD4,1991,135,2212,2213,2223,2222
CQUAD4,1992,135,2213,2214,2224,2223
CQUAD4,1993,135,2214,2215,2225,2224
CQUAD4,1994,135,2215,2216,2226,2225
CQUAD4,1995,135,2216,2217,2227,2226
CQUAD4,1996,135,2217,2218,2228,2227
CQUAD4,1997,135,2218,2219,2229,2228
$ CASE TC030_B
$ ============
$HMNAME COMP 200 "TC030_B"
$HMCOMP ID 200
CQUAD4,2254,200,2486,2487,2498,2497
CQUAD4,2255,200,2487,2488,2499,2498
CQUAD4,2256,200,2488,2489,2500,2499
CQUAD4,2257,200,2489,2490,2501,2500
CQUAD4,2258,200,2490,2491,2502,2501
CQUAD4,2259,200,2491,2492,2503,2502
CQUAD4,2260,200,2492,2493,2504,2503
CQUAD4,2261,200,2493,2494,2505,2504
CQUAD4,2262,200,2494,2495,2506,2505
CQUAD4,2263,200,2495,2496,2507,2506
CQUAD4,2264,200,2497,2498,2509,2508
CQUAD4,2265,200,2498,2499,2510,2509
CQUAD4,2266,200,2499,2500,2511,2510
CQUAD4,2267,200,2500,2501,2512,2511
CQUAD4,2268,200,2501,2502,2513,2512
CQUAD4,2269,200,2502,2503,2514,2513
CQUAD4,2270,200,2503,2504,2515,2514
CQUAD4,2271,200,2504,2505,2516,2515
CQUAD4,2272,200,2505,2506,2517,2516
CQUAD4,2273,200,2506,2507,2518,2517
$ ... 80 like lines cut
$ CASE TC030_C
$ ============
$HMNAME COMP 201 "TC030_C"
$HMCOMP ID 201
CQUAD4,2354,201,2607,2608,2619,2618
CQUAD4,2355,201,2608,2609,2620,2619
CQUAD4,2356,201,2609,2610,2621,2620
CQUAD4,2357,201,2610,2611,2622,2621
CQUAD4,2358,201,2611,2612,2623,2622
CQUAD4,2359,201,2612,2613,2624,2623
CQUAD4,2360,201,2613,2614,2625,2624
CQUAD4,2361,201,2614,2615,2626,2625
CQUAD4,2362,201,2615,2616,2627,2626
CQUAD4,2363,201,2616,2617,2628,2627
CQUAD4,2364,201,2618,2619,2630,2629
CQUAD4,2365,201,2619,2620,2631,2630
CQUAD4,2366,201,2620,2621,2632,2631
CQUAD4,2367,201,2621,2622,2633,2632
CQUAD4,2368,201,2622,2623,2634,2633
CQUAD4,2369,201,2623,2624,2635,2634
CQUAD4,2370,201,2624,2625,2636,2635
CQUAD4,2371,201,2625,2626,2637,2636
CQUAD4,2372,201,2626,2627,2638,2637
CQUAD4,2373,201,2627,2628,2639,2638
$ ... 80 like lines cut
$ CASE TC030_SRC_WEB
$ ==================
$HMNAME COMP 202 "TC030_SRC_WEB"
$HMCOMP ID 202
CQUAD4,2454,202,2728,2730,2731,2729
CQUAD4,2455,202,2730,2732,2733,2731
CQUAD4,2456,202,2732,2734,2735,2733
CQUAD4,2457,202,2734,2736,2737,2735
CQUAD4,2458,202,2736,2738,2739,2737
CQUAD4,2459,202,2738,2740,2741,2739
CQUAD4,2460,202,2740,2742,2743,2741
CQUAD4,2461,202,2742,2744,2745,2743
CQUAD4,2462,202,2744,2746,2747,2745
CQUAD4,2463,202,2746,2748,2749,2747
CQUAD4,2464,202,2748,2750,2751,2749
CQUAD4,2465,202,2750,2752,2753,2751
CQUAD4,2466,202,2752,2754,2755,2753
CQUAD4,2467,202,2754,2756,2757,2755
CQUAD4,2468,202,2756,2758,2759,2757
CQUAD4,2469,202,2758,2760,2761,2759
CQUAD4,2470,202,2760,2762,2763,2761
CQUAD4,2471,202,2762,2764,2765,2763
CQUAD4,2472,202,2764,2766,2767,2765
CQUAD4,2473,202,2766,2768,2769,2767
$ ... 10 like lines cut
$ CASE TC010_TGT_BASE
$ ===================
$HMNAME COMP 267 "TC010_TGT_BASE"
$HMCOMP ID 267
CQUAD4,2740,267,3046,3047,3057,3056
CQUAD4,2741,267,3047,3048,3058,3057
CQUAD4,2742,267,3048,3049,3059,3058
CQUAD4,2743,267,3049,3050,3060,3059
CQUAD4,2744,267,3050,3051,3061,3060
CQUAD4,2745,267,3051,3052,3062,3061
CQUAD4,2746,267,3052,3053,3063,3062
CQUAD4,2747,267,3053,3054,3064,3063
CQUAD4,2748,267,3054,3055,3065,3064
CQUAD4,2749,267,3056,3057,3067,3066
CQUAD4,2750,267,3057,3058,3068,3067
CQUAD4,2751,267,3058,3059,3069,3068
CQUAD4,2752,267,3059,3060,3070,3069
CQUAD4,2753,267,3060,3061,3071,3070
CQUAD4,2754,267,3061,3062,3072,3071
CQUAD4,2755,267,3062,3063,3073,3072
CQUAD4,2756,267,3063,3064,3074,3073
CQUAD4,2757,267,3064,3065,3075,3074
CQUAD4,2758,267,3066,3067,3077,3076
CQUAD4,2759,267,3067,3068,3078,3077
$ ... 160 like lines cut
$ CASE TC010_SRC_WEB
$ ==================
$HMNAME COMP 268 "TC010_SRC_WEB"
$HMCOMP ID 268
CQUAD4,2920,268,3266,3267,3298,3297
CQUAD4,2921,268,3267,3268,3299,3298
CQUAD4,2922,268,3268,3269,3300,3299
CQUAD4,2923,268,3269,3270,3301,3300
CQUAD4,2924,268,3270,3271,3302,3301
CQUAD4,2925,268,3271,3272,3303,3302
CQUAD4,2926,268,3272,3273,3304,3303
CQUAD4,2927,268,3273,3274,3305,3304
CQUAD4,2928,268,3274,3275,3306,3305
CQUAD4,2929,268,3275,3276,3307,3306
CQUAD4,2930,268,3276,3277,3308,3307
CQUAD4,2931,268,3277,3278,3309,3308
CQUAD4,2932,268,3278,3279,3310,3309
CQUAD4,2933,268,3279,3280,3311,3310
CQUAD4,2934,268,3280,3281,3312,3311
CQUAD4,2935,268,3281,3282,3313,3312
CQUAD4,2936,268,3282,3283,3314,3313
CQUAD4,2937,268,3283,3284,3315,3314
CQUAD4,2938,268,3284,3285,3316,3315
CQUAD4,2939,268,3285,3286,3317,3316
$ ... 280 like lines cut
$ CASE TC021_TGT_BASE
$ ===================
$HMNAME COMP 333 "TC021_TGT_BASE"
$HMCOMP ID 333
CQUAD4,3476,333,3863,3864,3885,3884
CQUAD4,3477,333,3864,3865,3886,3885
CQUAD4,3478,333,3865,3866,3887,3886
CQUAD4,3479,333,3866,3867,3888,3887
CQUAD4,3480,333,3867,3868,3889,3888
CQUAD4,3481,333,3868,3869,3890,3889
CQUAD4,3482,333,3869,3870,3891,3890
CQUAD4,3483,333,3870,3871,3892,3891
CQUAD4,3484,333,3871,3872,3893,3892
CQUAD4,3485,333,3872,3873,3894,3893
CQUAD4,3486,333,3873,3874,3895,3894
CQUAD4,3487,333,3874,3875,3896,3895
CQUAD4,3488,333,3875,3876,3897,3896
CQUAD4,3489,333,3876,3877,3898,3897
CQUAD4,3490,333,3877,3878,3899,3898
CQUAD4,3491,333,3878,3879,3900,3899
CQUAD4,3492,333,3879,3880,3901,3900
CQUAD4,3493,333,3880,3881,3902,3901
CQUAD4,3494,333,3881,3882,3903,3902
CQUAD4,3495,333,3882,3883,3904,3903
$ ... 180 like lines cut
$ CASE TC021_SRC_WEB
$ ==================
$HMNAME COMP 334 "TC021_SRC_WEB"
$HMCOMP ID 334
CQUAD4,3676,334,4094,4095,4126,4125
CQUAD4,3677,334,4095,4096,4127,4126
CQUAD4,3678,334,4096,4097,4128,4127
CQUAD4,3679,334,4097,4098,4129,4128
CQUAD4,3680,334,4098,4099,4130,4129
CQUAD4,3681,334,4099,4100,4131,4130
CQUAD4,3682,334,4100,4101,4132,4131
CQUAD4,3683,334,4101,4102,4133,4132
CQUAD4,3684,334,4102,4103,4134,4133
CQUAD4,3685,334,4103,4104,4135,4134
CQUAD4,3686,334,4104,4105,4136,4135
CQUAD4,3687,334,4105,4106,4137,4136
CQUAD4,3688,334,4106,4107,4138,4137
CQUAD4,3689,334,4107,4108,4139,4138
CQUAD4,3690,334,4108,4109,4140,4139
CQUAD4,3691,334,4109,4110,4141,4140
CQUAD4,3692,334,4110,4111,4142,4141
CQUAD4,3693,334,4111,4112,4143,4142
CQUAD4,3694,334,4112,4113,4144,4143
CQUAD4,3695,334,4113,4114,4145,4144
$ ... 280 like lines cut
$ CASE TC043_PLATE0
$ =================
$HMNAME COMP 399 "TC043_PLATE0"
$HMCOMP ID 399
CQUAD4,4232,399,4691,4692,4708,4707
CQUAD4,4233,399,4692,4693,4709,4708
CQUAD4,4234,399,4693,4694,4710,4709
CQUAD4,4235,399,4694,4695,4711,4710
CQUAD4,4236,399,4695,4696,4712,4711
CQUAD4,4237,399,4696,4697,4713,4712
CQUAD4,4238,399,4697,4698,4714,4713
CQUAD4,4239,399,4698,4699,4715,4714
CQUAD4,4240,399,4699,4700,4716,4715
CQUAD4,4241,399,4700,4701,4717,4716
CQUAD4,4242,399,4701,4702,4718,4717
CQUAD4,4243,399,4702,4703,4719,4718
CQUAD4,4244,399,4703,4704,4720,4719
CQUAD4,4245,399,4704,4705,4721,4720
CQUAD4,4246,399,4705,4706,4722,4721
CQUAD4,4247,399,4707,4708,4724,4723
CQUAD4,4248,399,4708,4709,4725,4724
CQUAD4,4249,399,4709,4710,4726,4725
CQUAD4,4250,399,4710,4711,4727,4726
CQUAD4,4251,399,4711,4712,4728,4727
$ ... 100 like lines cut
$ CASE TC043_PLATE1
$ =================
$HMNAME COMP 400 "TC043_PLATE1"
$HMCOMP ID 400
CQUAD4,4352,400,4835,4836,4852,4851
CQUAD4,4353,400,4836,4837,4853,4852
CQUAD4,4354,400,4837,4838,4854,4853
CQUAD4,4355,400,4838,4839,4855,4854
CQUAD4,4356,400,4839,4840,4856,4855
CQUAD4,4357,400,4840,4841,4857,4856
CQUAD4,4358,400,4841,4842,4858,4857
CQUAD4,4359,400,4842,4843,4859,4858
CQUAD4,4360,400,4843,4844,4860,4859
CQUAD4,4361,400,4844,4845,4861,4860
CQUAD4,4362,400,4845,4846,4862,4861
CQUAD4,4363,400,4846,4847,4863,4862
CQUAD4,4364,400,4847,4848,4864,4863
CQUAD4,4365,400,4848,4849,4865,4864
CQUAD4,4366,400,4849,4850,4866,4865
CQUAD4,4367,400,4851,4852,4868,4867
CQUAD4,4368,400,4852,4853,4869,4868
CQUAD4,4369,400,4853,4854,4870,4869
CQUAD4,4370,400,4854,4855,4871,4870
CQUAD4,4371,400,4855,4856,4872,4871
$ ... 100 like lines cut
$ CASE TC043_PLATE2
$ =================
$HMNAME COMP 401 "TC043_PLATE2"
$HMCOMP ID 401
CQUAD4,4472,401,4979,4980,4996,4995
CQUAD4,4473,401,4980,4981,4997,4996
CQUAD4,4474,401,4981,4982,4998,4997
CQUAD4,4475,401,4982,4983,4999,4998
CQUAD4,4476,401,4983,4984,5000,4999
CQUAD4,4477,401,4984,4985,5001,5000
CQUAD4,4478,401,4985,4986,5002,5001
CQUAD4,4479,401,4986,4987,5003,5002
CQUAD4,4480,401,4987,4988,5004,5003
CQUAD4,4481,401,4988,4989,5005,5004
CQUAD4,4482,401,4989,4990,5006,5005
CQUAD4,4483,401,4990,4991,5007,5006
CQUAD4,4484,401,4991,4992,5008,5007
CQUAD4,4485,401,4992,4993,5009,5008
CQUAD4,4486,401,4993,4994,5010,5009
CQUAD4,4487,401,4995,4996,5012,5011
CQUAD4,4488,401,4996,4997,5013,5012
CQUAD4,4489,401,4997,4998,5014,5013
CQUAD4,4490,401,4998,4999,5015,5014
CQUAD4,4491,401,4999,5000,5016,5015
$ ... 100 like lines cut
PSHELL,1,1,6
PSHELL,2,1,10
PSHELL,67,1,10
PSHELL,68,1,10
PSHELL,133,1,10
PSHELL,134,1,6
PSHELL,135,1,6
PSHELL,200,1,10
PSHELL,201,1,10
PSHELL,202,1,6
PSHELL,267,1,10
PSHELL,268,1,6
PSHELL,333,1,10
PSHELL,334,1,6
PSHELL,399,1,6
PSHELL,400,1,6
PSHELL,401,1,6
MAT1,1,210000,,0.3
ENDDATA
