$ HMWF_OFFLINE_AUTO_SEAM_MODEL
BEGIN BULK
GRID,25000,,0,-100,0
GRID,25001,,20,-100,0
GRID,25002,,40,-100,0
GRID,25003,,60,-100,0
GRID,25004,,80,-100,0
GRID,25005,,100,-100,0
GRID,25006,,120,-100,0
GRID,25007,,140,-100,0
GRID,25008,,160,-100,0
GRID,25009,,180,-100,0
GRID,25010,,200,-100,0
GRID,25011,,220,-100,0
GRID,25012,,240,-100,0
GRID,25013,,260,-100,0
GRID,25014,,280,-100,0
GRID,25015,,300,-100,0
GRID,25016,,320,-100,0
GRID,25017,,340,-100,0
GRID,25018,,360,-100,0
GRID,25019,,380,-100,0
$ ... 783 like lines cut
$ CASE TC025_B
$ ============
$HMNAME COMP 45000 "TC025_B"
$HMCOMP ID 45000
CQUAD4,35000,55000,25000,25001,25022,25021
CQUAD4,35001,55000,25001,25002,25023,25022
CQUAD4,35002,55000,25002,25003,25024,25023
CQUAD4,35003,55000,25003,25004,25025,25024
CQUAD4,35004,55000,25004,25005,25026,25025
CQUAD4,35005,55000,25005,25006,25027,25026
CQUAD4,35006,55000,25006,25007,25028,25027
CQUAD4,35007,55000,25007,25008,25029,25028
CQUAD4,35008,55000,25008,25009,25030,25029
CQUAD4,35009,55000,25009,25010,25031,25030
CQUAD4,35010,55000,25010,25011,25032,25031
CQUAD4,35011,55000,25011,25012,25033,25032
CQUAD4,35012,55000,25012,25013,25034,25033
CQUAD4,35013,55000,25013,25014,25035,25034
CQUAD4,35014,55000,25014,25015,25036,25035
CQUAD4,35015,55000,25015,25016,25037,25036
CQUAD4,35016,55000,25016,25017,25038,25037
CQUAD4,35017,55000,25017,25018,25039,25038
CQUAD4,35018,55000,25018,25019,25040,25039
CQUAD4,35019,55000,25019,25020,25041,25040
$ ... 180 like lines cut
$ CASE TC025_C
$ ============
$HMNAME COMP 45001 "TC025_C"
$HMCOMP ID 45001
CQUAD4,35200,55001,25231,25232,25253,25252
CQUAD4,35201,55001,25232,25233,25254,25253
CQUAD4,35202,55001,25233,25234,25255,25254
CQUAD4,35203,55001,25234,25235,25256,25255
CQUAD4,35204,55001,25235,25236,25257,25256
CQUAD4,35205,55001,25236,25237,25258,25257
CQUAD4,35206,55001,25237,25238,25259,25258
CQUAD4,35207,55001,25238,25239,25260,25259
CQUAD4,35208,55001,25239,25240,25261,25260
CQUAD4,35209,55001,25240,25241,25262,25261
CQUAD4,35210,55001,25241,25242,25263,25262
CQUAD4,35211,55001,25242,25243,25264,25263
CQUAD4,35212,55001,25243,25244,25265,25264
CQUAD4,35213,55001,25244,25245,25266,25265
CQUAD4,35214,55001,25245,25246,25267,25266
CQUAD4,35215,55001,25246,25247,25268,25267
CQUAD4,35216,55001,25247,25248,25269,25268
CQUAD4,35217,55001,25248,25249,25270,25269
CQUAD4,35218,55001,25249,25250,25271,25270
CQUAD4,35219,55001,25250,25251,25272,25271
$ ... 180 like lines cut
$ CASE TC025_SRC_WEB
$ ==================
$HMNAME COMP 45002 "TC025_SRC_WEB"
$HMCOMP ID 45002
CQUAD4,35400,55002,25462,25463,25494,25493
CQUAD4,35401,55002,25463,25464,25495,25494
CQUAD4,35402,55002,25464,25465,25496,25495
CQUAD4,35403,55002,25465,25466,25497,25496
CQUAD4,35404,55002,25466,25467,25498,25497
CQUAD4,35405,55002,25467,25468,25499,25498
CQUAD4,35406,55002,25468,25469,25500,25499
CQUAD4,35407,55002,25469,25470,25501,25500
CQUAD4,35408,55002,25470,25471,25502,25501
CQUAD4,35409,55002,25471,25472,25503,25502
CQUAD4,35410,55002,25472,25473,25504,25503
CQUAD4,35411,55002,25473,25474,25505,25504
CQUAD4,35412,55002,25474,25475,25506,25505
CQUAD4,35413,55002,25475,25476,25507,25506
CQUAD4,35414,55002,25476,25477,25508,25507
CQUAD4,35415,55002,25477,25478,25509,25508
CQUAD4,35416,55002,25478,25479,25510,25509
CQUAD4,35417,55002,25479,25480,25511,25510
CQUAD4,35418,55002,25480,25481,25512,25511
CQUAD4,35419,55002,25481,25482,25513,25512
$ ... 280 like lines cut
PSHELL,55000,1,10
PSHELL,55001,1,10
PSHELL,55002,1,6
MAT1,1,210000,,0.3
ENDDATA
