$ HMWF_OFFLINE_AUTO_SEAM_MODEL
BEGIN BULK
GRID,16000,,0,-100,0
GRID,16001,,20,-100,0
GRID,16002,,40,-100,0
GRID,16003,,60,-100,0
GRID,16004,,80,-100,0
GRID,16005,,100,-100,0
GRID,16006,,120,-100,0
GRID,16007,,140,-100,0
GRID,16008,,160,-100,0
GRID,16009,,180,-100,0
GRID,16010,,200,-100,0
GRID,16011,,220,-100,0
GRID,16012,,240,-100,0
GRID,16013,,260,-100,0
GRID,16014,,280,-100,0
GRID,16015,,300,-100,0
GRID,16016,,320,-100,0
GRID,16017,,340,-100,0
GRID,16018,,360,-100,0
GRID,16019,,380,-100,0
$ ... 552 like lines cut
$ CASE TC016_TGT_BASE
$ ===================
$HMNAME COMP 36000 "TC016_TGT_BASE"
$HMCOMP ID 36000
CQUAD4,26000,46000,16000,16001,16022,16021
CQUAD4,26001,46000,16001,16002,16023,16022
CQUAD4,26002,46000,16002,16003,16024,16023
CQUAD4,26003,46000,16003,16004,16025,16024
CQUAD4,26004,46000,16004,16005,16026,16025
CQUAD4,26005,46000,16005,16006,16027,16026
CQUAD4,26006,46000,16006,16007,16028,16027
CQUAD4,26007,46000,16007,16008,16029,16028
CQUAD4,26008,46000,16008,16009,16030,16029
CQUAD4,26009,46000,16009,16010,16031,16030
CTRIA3,26010,46000,16010,16011,16032
CTRIA3,26011,46000,16010,16032,16031
CTRIA3,26012,46000,16011,16012,16033
CTRIA3,26013,46000,16011,16033,16032
CTRIA3,26014,46000,16012,16013,16034
CTRIA3,26015,46000,16012,16034,16033
CQUAD4,26016,46000,16013,16014,16035,16034
CQUAD4,26017,46000,16014,16015,16036,16035
CQUAD4,26018,46000,16015,16016,16037,16036
CQUAD4,26019,46000,16016,16017,16038,16037
CQUAD4,26020,46000,16017,16018,16039,16038
CQUAD4,26021,46000,16018,16019,16040,16039
CQUAD4,26022,46000,16019,16020,16041,16040
CQUAD4,26023,46000,16021,16022,16043,16042
CQUAD4,26024,46000,16022,16023,16044,16043
CQUAD4,26025,46000,16023,16024,16045,16044
CQUAD4,26026,46000,16024,16025,16046,16045
CQUAD4,26027,46000,16025,16026,16047,16046
CQUAD4,26028,46000,16026,16027,16048,16047
CQUAD4,26029,46000,16027,16028,16049,16048
CQUAD4,26030,46000,16028,16029,16050,16049
CQUAD4,26031,46000,16029,16030,16051,16050
CQUAD4,26032,46000,16030,16031,16052,16051
CTRIA3,26033,46000,16031,16032,16053
CTRIA3,26034,46000,16031,16053,16052
CTRIA3,26035,46000,16032,16033,16054
CTRIA3,26036,46000,16032,16054,16053
CTRIA3,26037,46000,16033,16034,16055
CTRIA3,26038,46000,16033,16055,16054
CQUAD4,26039,46000,16034,16035,16056,16055
CQUAD4,26040,46000,16035,16036,16057,16056
CQUAD4,26041,46000,16036,16037,16058,16057
CQUAD4,26042,46000,16037,16038,16059,16058
CQUAD4,26043,46000,16038,16039,16060,16059
CQUAD4,26044,46000,16039,16040,16061,16060
CQUAD4,26045,46000,16040,16041,16062,16061
CQUAD4,26046,46000,16042,16043,16064,16063
CQUAD4,26047,46000,16043,16044,16065,16064
CQUAD4,26048,46000,16044,16045,16066,16065
CQUAD4,26049,46000,16045,16046,16067,16066
CQUAD4,26050,46000,16046,16047,16068,16067
CQUAD4,26051,46000,16047,16048,16069,16068
CQUAD4,26052,46000,16048,16049,16070,16069
CQUAD4,26053,46000,16049,16050,16071,16070
CQUAD4,26054,46000,16050,16051,16072,16071
CQUAD4,26055,46000,16051,16052,16073,16072
CTRIA3,26056,46000,16052,16053,16074
CTRIA3,26057,46000,16052,16074,16073
CTRIA3,26058,46000,16053,16054,16075
CTRIA3,26059,46000,16053,16075,16074
CTRIA3,26060,46000,16054,16055,16076
CTRIA3,26061,46000,16054,16076,16075
CQUAD4,26062,46000,16055,16056,16077,16076
CQUAD4,26063,46000,16056,16057,16078,16077
CQUAD4,26064,46000,16057,16058,16079,16078
CQUAD4,26065,46000,16058,16059,16080,16079
CQUAD4,26066,46000,16059,16060,16081,16080
CQUAD4,26067,46000,16060,16061,16082,16081
CQUAD4,26068,46000,16061,16062,16083,16082
CQUAD4,26069,46000,16063,16064,16085,16084
CQUAD4,26070,46000,16064,16065,16086,16085
CQUAD4,26071,46000,16065,16066,16087,16086
CQUAD4,26072,46000,16066,16067,16088,16087
CQUAD4,26073,46000,16067,16068,16089,16088
CQUAD4,26074,46000,16068,16069,16090,16089
CQUAD4,26075,46000,16069,16070,16091,16090
CQUAD4,26076,46000,16070,16071,16092,16091
CQUAD4,26077,46000,16071,16072,16093,16092
CQUAD4,26078,46000,16072,16073,16094,16093
CTRIA3,26079,46000,16073,16074,16095
CTRIA3,26080,46000,16073,16095,16094
CTRIA3,26081,46000,16074,16075,16096
CTRIA3,26082,46000,16074,16096,16095
CTRIA3,26083,46000,16075,16076,16097
CTRIA3,26084,46000,16075,16097,16096
CQUAD4,26085,46000,16076,16077,16098,16097
CQUAD4,26086,46000,16077,16078,16099,16098
CQUAD4,26087,46000,16078,16079,16100,16099
CQUAD4,26088,46000,16079,16080,16101,16100
CQUAD4,26089,46000,16080,16081,16102,16101
CQUAD4,26090,46000,16081,16082,16103,16102
CQUAD4,26091,46000,16082,16083,16104,16103
CQUAD4,26092,46000,16084,16085,16106,16105
CQUAD4,26093,46000,16085,16086,16107,16106
CQUAD4,26094,46000,16086,16087,16108,16107
CQUAD4,26095,46000,16087,16088,16109,16108
CQUAD4,26096,46000,16088,16089,16110,16109
CQUAD4,26097,46000,16089,16090,16111,16110
CQUAD4,26098,46000,16090,16091,16112,16111
CQUAD4,26099,46000,16091,16092,16113,16112
CQUAD4,26100,46000,16092,16093,16114,16113
CQUAD4,26101,46000,16093,16094,16115,16114
CTRIA3,26102,46000,16094,16095,16116
CTRIA3,26103,46000,16094,16116,16115
CTRIA3,26104,46000,16095,16096,16117
CTRIA3,26105,46000,16095,16117,16116
CTRIA3,26106,46000,16096,16097,16118
CTRIA3,26107,46000,16096,16118,16117
CQUAD4,26108,46000,16097,16098,16119,16118
CQUAD4,26109,46000,16098,16099,16120,16119
CQUAD4,26110,46000,16099,16100,16121,16120
CQUAD4,26111,46000,16100,16101,16122,16121
CQUAD4,26112,46000,16101,16102,16123,16122
CQUAD4,26113,46000,16102,16103,16124,16123
CQUAD4,26114,46000,16103,16104,16125,16124
CQUAD4,26115,46000,16105,16106,16127,16126
CQUAD4,26116,46000,16106,16107,16128,16127
CQUAD4,26117,46000,16107,16108,16129,16128
CQUAD4,26118,46000,16108,16109,16130,16129
CQUAD4,26119,46000,16109,16110,16131,16130
CQUAD4,26120,46000,16110,16111,16132,16131
CQUAD4,26121,46000,16111,16112,16133,16132
CQUAD4,26122,46000,16112,16113,16134,16133
CQUAD4,26123,46000,16113,16114,16135,16134
CQUAD4,26124,46000,16114,16115,16136,16135
CTRIA3,26125,46000,16115,16116,16137
CTRIA3,26126,46000,16115,16137,16136
CTRIA3,26127,46000,16116,16117,16138
CTRIA3,26128,46000,16116,16138,16137
CTRIA3,26129,46000,16117,16118,16139
CTRIA3,26130,46000,16117,16139,16138
CQUAD4,26131,46000,16118,16119,16140,16139
CQUAD4,26132,46000,16119,16120,16141,16140
CQUAD4,26133,46000,16120,16121,16142,16141
CQUAD4,26134,46000,16121,16122,16143,16142
CQUAD4,26135,46000,16122,16123,16144,16143
CQUAD4,26136,46000,16123,16124,16145,16144
CQUAD4,26137,46000,16124,16125,16146,16145
CQUAD4,26138,46000,16126,16127,16148,16147
CQUAD4,26139,46000,16127,16128,16149,16148
CQUAD4,26140,46000,16128,16129,16150,16149
CQUAD4,26141,46000,16129,16130,16151,16150
CQUAD4,26142,46000,16130,16131,16152,16151
CQUAD4,26143,46000,16131,16132,16153,16152
CQUAD4,26144,46000,16132,16133,16154,16153
CQUAD4,26145,46000,16133,16134,16155,16154
CQUAD4,26146,46000,16134,16135,16156,16155
CQUAD4,26147,46000,16135,16136,16157,16156
CTRIA3,26148,46000,16136,16137,16158
CTRIA3,26149,46000,16136,16158,16157
CTRIA3,26150,46000,16137,16138,16159
CTRIA3,26151,46000,16137,16159,16158
CTRIA3,26152,46000,16138,16139,16160
CTRIA3,26153,46000,16138,16160,16159
CQUAD4,26154,46000,16139,16140,16161,16160
CQUAD4,26155,46000,16140,16141,16162,16161
CQUAD4,26156,46000,16141,16142,16163,16162
CQUAD4,26157,46000,16142,16143,16164,16163
CQUAD4,26158,46000,16143,16144,16165,16164
CQUAD4,26159,46000,16144,16145,16166,16165
CQUAD4,26160,46000,16145,16146,16167,16166
CQUAD4,26161,46000,16147,16148,16169,16168
CQUAD4,26162,46000,16148,16149,16170,16169
CQUAD4,26163,46000,16149,16150,16171,16170
CQUAD4,26164,46000,16150,16151,16172,16171
CQUAD4,26165,46000,16151,16152,16173,16172
CQUAD4,26166,46000,16152,16153,16174,16173
CQUAD4,26167,46000,16153,16154,16175,16174
CQUAD4,26168,46000,16154,16155,16176,16175
CQUAD4,26169,46000,16155,16156,16177,16176
CQUAD4,26170,46000,16156,16157,16178,16177
CTRIA3,26171,46000,16157,16158,16179
CTRIA3,26172,46000,16157,16179,16178
CTRIA3,26173,46000,16158,16159,16180
CTRIA3,26174,46000,16158,16180,16179
CTRIA3,26175,46000,16159,16160,16181
CTRIA3,26176,46000,16159,16181,16180
CQUAD4,26177,46000,16160,16161,16182,16181
CQUAD4,26178,46000,16161,16162,16183,16182
CQUAD4,26179,46000,16162,16163,16184,16183
CQUAD4,26180,46000,16163,16164,16185,16184
CQUAD4,26181,46000,16164,16165,16186,16185
CQUAD4,26182,46000,16165,16166,16187,16186
CQUAD4,26183,46000,16166,16167,16188,16187
CQUAD4,26184,46000,16168,16169,16190,16189
CQUAD4,26185,46000,16169,16170,16191,16190
CQUAD4,26186,46000,16170,16171,16192,16191
CQUAD4,26187,46000,16171,16172,16193,16192
CQUAD4,26188,46000,16172,16173,16194,16193
CQUAD4,26189,46000,16173,16174,16195,16194
CQUAD4,26190,46000,16174,16175,16196,16195
CQUAD4,26191,46000,16175,16176,16197,16196
CQUAD4,26192,46000,16176,16177,16198,16197
CQUAD4,26193,46000,16177,16178,16199,16198
CTRIA3,26194,46000,16178,16179,16200
CTRIA3,26195,46000,16178,16200,16199
CTRIA3,26196,46000,16179,16180,16201
CTRIA3,26197,46000,16179,16201,16200
CTRIA3,26198,46000,16180,16181,16202
CTRIA3,26199,46000,16180,16202,16201
CQUAD4,26200,46000,16181,16182,16203,16202
CQUAD4,26201,46000,16182,16183,16204,16203
CQUAD4,26202,46000,16183,16184,16205,16204
CQUAD4,26203,46000,16184,16185,16206,16205
CQUAD4,26204,46000,16185,16186,16207,16206
CQUAD4,26205,46000,16186,16187,16208,16207
CQUAD4,26206,46000,16187,16188,16209,16208
CQUAD4,26207,46000,16189,16190,16211,16210
CQUAD4,26208,46000,16190,16191,16212,16211
CQUAD4,26209,46000,16191,16192,16213,16212
CQUAD4,26210,46000,16192,16193,16214,16213
CQUAD4,26211,46000,16193,16194,16215,16214
CQUAD4,26212,46000,16194,16195,16216,16215
CQUAD4,26213,46000,16195,16196,16217,16216
CQUAD4,26214,46000,16196,16197,16218,16217
CQUAD4,26215,46000,16197,16198,16219,16218
CQUAD4,26216,46000,16198,16199,16220,16219
CTRIA3,26217,46000,16199,16200,16221
CTRIA3,26218,46000,16199,16221,16220
CTRIA3,26219,46000,16200,16201,16222
CTRIA3,26220,46000,16200,16222,16221
CTRIA3,26221,46000,16201,16202,16223
CTRIA3,26222,46000,16201,16223,16222
CQUAD4,26223,46000,16202,16203,16224,16223
CQUAD4,26224,46000,16203,16204,16225,16224
CQUAD4,26225,46000,16204,16205,16226,16225
CQUAD4,26226,46000,16205,16206,16227,16226
CQUAD4,26227,46000,16206,16207,16228,16227
CQUAD4,26228,46000,16207,16208,16229,16228
CQUAD4,26229,46000,16208,16209,16230,16229
$ CASE TC016_SRC_WEB
$ ==================
$HMNAME COMP 36001 "TC016_SRC_WEB"
$HMCOMP ID 36001
CQUAD4,26230,46001,16231,16232,16263,16262
CQUAD4,26231,46001,16232,16233,16264,16263
CQUAD4,26232,46001,16233,16234,16265,16264
CQUAD4,26233,46001,16234,16235,16266,16265
CQUAD4,26234,46001,16235,16236,16267,16266
CQUAD4,26235,46001,16236,16237,16268,16267
CQUAD4,26236,46001,16237,16238,16269,16268
CQUAD4,26237,46001,16238,16239,16270,16269
CQUAD4,26238,46001,16239,16240,16271,16270
CQUAD4,26239,46001,16240,16241,16272,16271
CQUAD4,26240,46001,16241,16242,16273,16272
CQUAD4,26241,46001,16242,16243,16274,16273
CQUAD4,26242,46001,16243,16244,16275,16274
CQUAD4,26243,46001,16244,16245,16276,16275
CQUAD4,26244,46001,16245,16246,16277,16276
CQUAD4,26245,46001,16246,16247,16278,16277
CQUAD4,26246,46001,16247,16248,16279,16278
CQUAD4,26247,46001,16248,16249,16280,16279
CQUAD4,26248,46001,16249,16250,16281,16280
CQUAD4,26249,46001,16250,16251,16282,16281
$ ... 280 like lines cut
PSHELL,46000,1,10
PSHELL,46001,1,6
MAT1,1,210000,,0.3
ENDDATA
