$ HMWF_OFFLINE_AUTO_SEAM_MODEL
BEGIN BULK
GRID,43000,,-150,-80,0
GRID,43001,,-130,-80,0
GRID,43002,,-110,-80,0
GRID,43003,,-90,-80,0
GRID,43004,,-70,-80,0
GRID,43005,,-50,-80,0
GRID,43006,,-30,-80,0
GRID,43007,,-10,-80,0
GRID,43008,,10,-80,0
GRID,43009,,30,-80,0
GRID,43010,,50,-80,0
GRID,43011,,70,-80,0
GRID,43012,,90,-80,0
GRID,43013,,110,-80,0
GRID,43014,,130,-80,0
GRID,43015,,150,-80,0
GRID,43016,,-150,-60,0
GRID,43017,,-130,-60,0
GRID,43018,,-110,-60,0
GRID,43019,,-90,-60,0
$ ... 412 like lines cut
$ CASE TC043_PLATE0
$ =================
$HMNAME COMP 63000 "TC043_PLATE0"
$HMCOMP ID 63000
CQUAD4,53000,73000,43000,43001,43017,43016
CQUAD4,53001,73000,43001,43002,43018,43017
CQUAD4,53002,73000,43002,43003,43019,43018
CQUAD4,53003,73000,43003,43004,43020,43019
CQUAD4,53004,73000,43004,43005,43021,43020
CQUAD4,53005,73000,43005,43006,43022,43021
CQUAD4,53006,73000,43006,43007,43023,43022
CQUAD4,53007,73000,43007,43008,43024,43023
CQUAD4,53008,73000,43008,43009,43025,43024
CQUAD4,53009,73000,43009,43010,43026,43025
CQUAD4,53010,73000,43010,43011,43027,43026
CQUAD4,53011,73000,43011,43012,43028,43027
CQUAD4,53012,73000,43012,43013,43029,43028
CQUAD4,53013,73000,43013,43014,43030,43029
CQUAD4,53014,73000,43014,43015,43031,43030
CQUAD4,53015,73000,43016,43017,43033,43032
CQUAD4,53016,73000,43017,43018,43034,43033
CQUAD4,53017,73000,43018,43019,43035,43034
CQUAD4,53018,73000,43019,43020,43036,43035
CQUAD4,53019,73000,43020,43021,43037,43036
$ ... 100 like lines cut
$ CASE TC043_PLATE1
$ =================
$HMNAME COMP 63001 "TC043_PLATE1"
$HMCOMP ID 63001
CQUAD4,53120,73001,43144,43145,43161,43160
CQUAD4,53121,73001,43145,43146,43162,43161
CQUAD4,53122,73001,43146,43147,43163,43162
CQUAD4,53123,73001,43147,43148,43164,43163
CQUAD4,53124,73001,43148,43149,43165,43164
CQUAD4,53125,73001,43149,43150,43166,43165
CQUAD4,53126,73001,43150,43151,43167,43166
CQUAD4,53127,73001,43151,43152,43168,43167
CQUAD4,53128,73001,43152,43153,43169,43168
CQUAD4,53129,73001,43153,43154,43170,43169
CQUAD4,53130,73001,43154,43155,43171,43170
CQUAD4,53131,73001,43155,43156,43172,43171
CQUAD4,53132,73001,43156,43157,43173,43172
CQUAD4,53133,73001,43157,43158,43174,43173
CQUAD4,53134,73001,43158,43159,43175,43174
CQUAD4,53135,73001,43160,43161,43177,43176
CQUAD4,53136,73001,43161,43162,43178,43177
CQUAD4,53137,73001,43162,43163,43179,43178
CQUAD4,53138,73001,43163,43164,43180,43179
CQUAD4,53139,73001,43164,43165,43181,43180
$ ... 100 like lines cut
$ CASE TC043_PLATE2
$ =================
$HMNAME COMP 63002 "TC043_PLATE2"
$HMCOMP ID 63002
CQUAD4,53240,73002,43288,43289,43305,43304
CQUAD4,53241,73002,43289,43290,43306,43305
CQUAD4,53242,73002,43290,43291,43307,43306
CQUAD4,53243,73002,43291,43292,43308,43307
CQUAD4,53244,73002,43292,43293,43309,43308
CQUAD4,53245,73002,43293,43294,43310,43309
CQUAD4,53246,73002,43294,43295,43311,43310
CQUAD4,53247,73002,43295,43296,43312,43311
CQUAD4,53248,73002,43296,43297,43313,43312
CQUAD4,53249,73002,43297,43298,43314,43313
CQUAD4,53250,73002,43298,43299,43315,43314
CQUAD4,53251,73002,43299,43300,43316,43315
CQUAD4,53252,73002,43300,43301,43317,43316
CQUAD4,53253,73002,43301,43302,43318,43317
CQUAD4,53254,73002,43302,43303,43319,43318
CQUAD4,53255,73002,43304,43305,43321,43320
CQUAD4,53256,73002,43305,43306,43322,43321
CQUAD4,53257,73002,43306,43307,43323,43322
CQUAD4,53258,73002,43307,43308,43324,43323
CQUAD4,53259,73002,43308,43309,43325,43324
$ ... 100 like lines cut
PSHELL,73000,1,6
PSHELL,73001,1,6
PSHELL,73002,1,6
MAT1,1,210000,,0.3
ENDDATA
