$ HMWF_OFFLINE_AUTO_SEAM_MODEL
BEGIN BULK
GRID,46000,,0,-100,0
GRID,46001,,20,-100,0
GRID,46002,,40,-100,0
GRID,46003,,60,-100,0
GRID,46004,,80,-100,0
GRID,46005,,100,-100,0
GRID,46006,,120,-100,0
GRID,46007,,140,-100,0
GRID,46008,,160,-100,0
GRID,46009,,180,-100,0
GRID,46010,,200,-100,0
GRID,46011,,0,-80,0
GRID,46012,,20,-80,0
GRID,46013,,40,-80,0
GRID,46014,,60,-80,0
GRID,46015,,80,-80,0
GRID,46016,,100,-80,0
GRID,46017,,120,-80,0
GRID,46018,,140,-80,0
GRID,46019,,160,-80,0
$ ... 222 like lines cut
$ CASE TC046_SHEET_LEFT
$ =====================
$HMNAME COMP 66000 "TC046_SHEET_LEFT"
$HMCOMP ID 66000
CQUAD4,56000,76000,46000,46001,46012,46011
CQUAD4,56001,76000,46001,46002,46013,46012
CQUAD4,56002,76000,46002,46003,46014,46013
CQUAD4,56003,76000,46003,46004,46015,46014
CQUAD4,56004,76000,46004,46005,46016,46015
CQUAD4,56005,76000,46005,46006,46017,46016
CQUAD4,56006,76000,46006,46007,46018,46017
CQUAD4,56007,76000,46007,46008,46019,46018
CQUAD4,56008,76000,46008,46009,46020,46019
CQUAD4,56009,76000,46009,46010,46021,46020
CQUAD4,56010,76000,46011,46012,46023,46022
CQUAD4,56011,76000,46012,46013,46024,46023
CQUAD4,56012,76000,46013,46014,46025,46024
CQUAD4,56013,76000,46014,46015,46026,46025
CQUAD4,56014,76000,46015,46016,46027,46026
CQUAD4,56015,76000,46016,46017,46028,46027
CQUAD4,56016,76000,46017,46018,46029,46028
CQUAD4,56017,76000,46018,46019,46030,46029
CQUAD4,56018,76000,46019,46020,46031,46030
CQUAD4,56019,76000,46020,46021,46032,46031
$ ... 80 like lines cut
$ CASE TC046_SHEET_RIGHT
$ ======================
$HMNAME COMP 66001 "TC046_SHEET_RIGHT"
$HMCOMP ID 66001
CQUAD4,56100,76001,46121,46122,46133,46132
CQUAD4,56101,76001,46122,46123,46134,46133
CQUAD4,56102,76001,46123,46124,46135,46134
CQUAD4,56103,76001,46124,46125,46136,46135
CQUAD4,56104,76001,46125,46126,46137,46136
CQUAD4,56105,76001,46126,46127,46138,46137
CQUAD4,56106,76001,46127,46128,46139,46138
CQUAD4,56107,76001,46128,46129,46140,46139
CQUAD4,56108,76001,46129,46130,46141,46140
CQUAD4,56109,76001,46130,46131,46142,46141
CQUAD4,56110,76001,46132,46133,46144,46143
CQUAD4,56111,76001,46133,46134,46145,46144
CQUAD4,56112,76001,46134,46135,46146,46145
CQUAD4,56113,76001,46135,46136,46147,46146
CQUAD4,56114,76001,46136,46137,46148,46147
CQUAD4,56115,76001,46137,46138,46149,46148
CQUAD4,56116,76001,46138,46139,46150,46149
CQUAD4,56117,76001,46139,46140,46151,46150
CQUAD4,56118,76001,46140,46141,46152,46151
CQUAD4,56119,76001,46141,46142,46153,46152
$ ... 80 like lines cut
PSHELL,76000,1,10
PSHELL,76001,1,10
MAT1,1,210000,,0.3
ENDDATA
